
     RDKit          2D

  0  0  0  0  0  0  0  0  0  0999 V3000
M  V30 BEGIN CTAB
M  V30 COUNTS 8 6 0 0 0
M  V30 BEGIN ATOM
M  V30 1 R 0.000000 0.000000 0.000000 0 MASS=6 VAL=1
M  V30 2 C 1.299038 0.750000 0.000000 0
M  V30 3 N 2.598076 -0.000000 0.000000 0
M  V30 4 O 1.299038 2.250000 0.000000 0
M  V30 5 R 0.000000 3.250000 0.000000 0 MASS=6 VAL=1
M  V30 6 C 1.299038 4.000000 0.000000 0
M  V30 7 N 2.598076 3.250000 0.000000 0
M  V30 8 O 1.299038 5.500000 0.000000 0
M  V30 END ATOM
M  V30 BEGIN BOND
M  V30 1 1 1 2
M  V30 2 1 2 3
M  V30 3 2 2 4
M  V30 4 1 5 6
M  V30 5 1 6 7
M  V30 6 2 6 8
M  V30 END BOND
M  V30 BEGIN COLLECTION
M  V30 MDLV30/STEABS ATOMS=(0)
M  V30 END COLLECTION
M  V30 END CTAB
M  END
$$$$

     RDKit          2D

  0  0  0  0  0  0  0  0  0  0999 V3000
M  V30 BEGIN CTAB
M  V30 COUNTS 8 6 0 0 0
M  V30 BEGIN ATOM
M  V30 1 R 0.000000 0.000000 0.000000 0 MASS=6 VAL=1
M  V30 2 C 1.299038 0.750000 0.000000 0
M  V30 3 N 2.598076 -0.000000 0.000000 0
M  V30 4 O 1.299038 2.250000 0.000000 0
M  V30 5 R 0.000000 3.250000 0.000000 0 MASS=1 VAL=1
M  V30 6 C 1.299038 4.000000 0.000000 0
M  V30 7 R 2.598076 3.250000 0.000000 0 MASS=6 VAL=1
M  V30 8 O 1.299038 5.500000 0.000000 0
M  V30 END ATOM
M  V30 BEGIN BOND
M  V30 1 1 1 2
M  V30 2 1 2 3
M  V30 3 2 2 4
M  V30 4 1 5 6
M  V30 5 1 6 7
M  V30 6 2 6 8
M  V30 END BOND
M  V30 BEGIN COLLECTION
M  V30 MDLV30/STEABS ATOMS=(0)
M  V30 END COLLECTION
M  V30 END CTAB
M  END
$$$$

     RDKit          2D

  0  0  0  0  0  0  0  0  0  0999 V3000
M  V30 BEGIN CTAB
M  V30 COUNTS 19 19 0 0 0
M  V30 BEGIN ATOM
M  V30 1 R 3.560660 0.000000 0.000000 0 MASS=6 VAL=1
M  V30 2 C 4.859698 0.750000 0.000000 0
M  V30 3 N 6.158736 -0.000000 0.000000 0
M  V30 4 O 4.859698 2.250000 0.000000 0
M  V30 5 R -4.672067 -2.834950 0.000000 0 MASS=11 VAL=1
M  V30 6 S -3.223178 -3.223178 0.000000 0
M  V30 7 C -2.162518 -2.162518 0.000000 0
M  V30 8 C -0.680986 -2.397170 0.000000 0
M  V30 9 C 0.000000 -3.733680 0.000000 0
M  V30 10 O 1.497944 -3.812184 0.000000 0
M  V30 11 O -0.816959 -4.991686 0.000000 0
M  V30 12 N -0.000000 -1.060660 0.000000 0
M  V30 13 C 1.060660 0.000000 0.000000 0
M  V30 14 O 2.560660 0.000000 0.000000 0
M  V30 15 C 0.000000 1.060660 0.000000 0
M  V30 16 R 0.000000 2.560660 0.000000 0 MASS=15 VAL=1
M  V30 17 C -1.060660 0.000000 0.000000 0
M  V30 18 C -2.397170 -0.680986 0.000000 0
M  V30 19 C -3.733680 0.000000 0.000000 0
M  V30 END ATOM
M  V30 BEGIN BOND
M  V30 1 1 1 2
M  V30 2 1 2 3
M  V30 3 2 2 4
M  V30 4 1 5 6
M  V30 5 1 6 7
M  V30 6 2 7 8
M  V30 7 1 8 9
M  V30 8 2 9 10
M  V30 9 1 9 11
M  V30 10 1 8 12
M  V30 11 1 12 13
M  V30 12 2 13 14
M  V30 13 1 13 15
M  V30 14 1 15 16 CFG=1
M  V30 15 1 15 17
M  V30 16 1 17 18
M  V30 17 1 18 19 CFG=3
M  V30 18 1 18 7
M  V30 19 1 17 12 CFG=3
M  V30 END BOND
M  V30 BEGIN COLLECTION
M  V30 MDLV30/STEABS ATOMS=(0)
M  V30 END COLLECTION
M  V30 END CTAB
M  END
$$$$

     RDKit          2D

  0  0  0  0  0  0  0  0  0  0999 V3000
M  V30 BEGIN CTAB
M  V30 COUNTS 8 6 0 0 0
M  V30 BEGIN ATOM
M  V30 1 R 0.000000 0.000000 0.000000 0 MASS=6 VAL=1
M  V30 2 C 1.299038 0.750000 0.000000 0
M  V30 3 N 2.598076 -0.000000 0.000000 0
M  V30 4 O 1.299038 2.250000 0.000000 0
M  V30 5 R 0.000000 3.250000 0.000000 0 MASS=5 VAL=1
M  V30 6 N 1.299038 4.000000 0.000000 0
M  V30 7 C 2.598076 3.250000 0.000000 0
M  V30 8 C 1.299038 5.500000 0.000000 0
M  V30 END ATOM
M  V30 BEGIN BOND
M  V30 1 1 1 2
M  V30 2 1 2 3
M  V30 3 2 2 4
M  V30 4 1 5 6
M  V30 5 1 6 7
M  V30 6 1 6 8
M  V30 END BOND
M  V30 BEGIN COLLECTION
M  V30 MDLV30/STEABS ATOMS=(0)
M  V30 END COLLECTION
M  V30 END CTAB
M  END
$$$$

     RDKit          2D

  0  0  0  0  0  0  0  0  0  0999 V3000
M  V30 BEGIN CTAB
M  V30 COUNTS 10 8 0 0 0
M  V30 BEGIN ATOM
M  V30 1 R 0.000000 2.299038 0.000000 0 MASS=6 VAL=1
M  V30 2 C 1.299038 3.049038 0.000000 0
M  V30 3 N 2.598076 2.299038 0.000000 0
M  V30 4 O 1.299038 4.549038 0.000000 0
M  V30 5 R -3.000000 -2.598076 0.000000 0 MASS=4 VAL=1
M  V30 6 C -2.250000 -1.299038 0.000000 0
M  V30 7 C -0.750000 -1.299038 0.000000 0
M  V30 8 N 0.000000 0.000000 0.000000 0
M  V30 9 C 1.500000 0.000000 0.000000 0
M  V30 10 N 2.250000 1.299038 0.000000 0
M  V30 END ATOM
M  V30 BEGIN BOND
M  V30 1 1 1 2
M  V30 2 1 2 3
M  V30 3 2 2 4
M  V30 4 1 5 6
M  V30 5 1 6 7
M  V30 6 1 7 8
M  V30 7 2 8 9
M  V30 8 1 9 10
M  V30 END BOND
M  V30 BEGIN COLLECTION
M  V30 MDLV30/STEABS ATOMS=(0)
M  V30 END COLLECTION
M  V30 END CTAB
M  END
$$$$

     RDKit          2D

  0  0  0  0  0  0  0  0  0  0999 V3000
M  V30 BEGIN CTAB
M  V30 COUNTS 18 18 0 0 0
M  V30 BEGIN ATOM
M  V30 1 R 0.000000 4.754828 0.000000 0 MASS=6 VAL=1
M  V30 2 C 1.299038 5.504828 0.000000 0
M  V30 3 N 2.598076 4.754828 0.000000 0
M  V30 4 O 1.299038 7.004828 0.000000 0
M  V30 5 R 3.525976 -1.299038 0.000000 0 MASS=11 VAL=1
M  V30 6 S 2.775976 0.000000 0.000000 0
M  V30 7 C 1.275976 0.000000 0.000000 0
M  V30 8 C 0.394298 1.213525 0.000000 0
M  V30 9 C 0.857824 2.640110 0.000000 0
M  V30 10 O -0.145872 3.754828 0.000000 0
M  V30 11 O 2.325045 2.951978 0.000000 0
M  V30 12 N -1.032286 0.750000 0.000000 0
M  V30 13 C -2.532286 0.750000 0.000000 0
M  V30 14 O -3.592947 1.810660 0.000000 0
M  V30 15 C -2.532286 -0.750000 0.000000 0
M  V30 16 R -3.592947 -1.810660 0.000000 0 MASS=15 VAL=1
M  V30 17 C -1.032286 -0.750000 0.000000 0
M  V30 18 C 0.394298 -1.213525 0.000000 0
M  V30 END ATOM
M  V30 BEGIN BOND
M  V30 1 1 1 2
M  V30 2 1 2 3
M  V30 3 2 2 4
M  V30 4 1 5 6
M  V30 5 1 6 7
M  V30 6 2 7 8
M  V30 7 1 8 9
M  V30 8 2 9 10
M  V30 9 1 9 11
M  V30 10 1 8 12
M  V30 11 1 12 13
M  V30 12 2 13 14
M  V30 13 1 13 15
M  V30 14 1 15 16 CFG=1
M  V30 15 1 15 17
M  V30 16 1 17 18 CFG=3
M  V30 17 1 18 7
M  V30 18 1 17 12
M  V30 END BOND
M  V30 BEGIN COLLECTION
M  V30 MDLV30/STEABS ATOMS=(0)
M  V30 END COLLECTION
M  V30 END CTAB
M  END
$$$$

     RDKit          2D

  0  0  0  0  0  0  0  0  0  0999 V3000
M  V30 BEGIN CTAB
M  V30 COUNTS 19 19 0 0 0
M  V30 BEGIN ATOM
M  V30 1 R 0.000000 4.794517 0.000000 0 MASS=6 VAL=1
M  V30 2 C 1.299038 5.544517 0.000000 0
M  V30 3 N 2.598076 4.794517 0.000000 0
M  V30 4 O 1.299038 7.044517 0.000000 0
M  V30 5 R 3.000000 0.000000 0.000000 0 MASS=13 VAL=1
M  V30 6 C 1.500000 0.000000 0.000000 0
M  V30 7 C 0.750000 -1.299038 0.000000 0
M  V30 8 C -0.750000 -1.299038 0.000000 0
M  V30 9 C -1.500000 0.000000 0.000000 0
M  V30 10 C -0.750000 1.299038 0.000000 0
M  V30 11 N 0.750000 1.299038 0.000000 0
M  V30 12 C -0.364717 2.302734 0.000000 0
M  V30 13 O -0.207925 3.794517 0.000000 0
M  V30 14 N -1.663755 1.552734 0.000000 0
M  V30 15 O -3.034074 2.162839 0.000000 0
M  V30 16 S -4.247599 1.281161 0.000000 0
M  V30 17 O -5.129277 2.494687 0.000000 0
M  V30 18 O -3.365921 0.067636 0.000000 0
M  V30 19 O -5.461125 0.399483 0.000000 0
M  V30 END ATOM
M  V30 BEGIN BOND
M  V30 1 1 1 2
M  V30 2 1 2 3
M  V30 3 2 2 4
M  V30 4 1 6 5 CFG=3
M  V30 5 1 6 7
M  V30 6 1 7 8
M  V30 7 1 9 8 CFG=1
M  V30 8 1 9 10
M  V30 9 1 10 11
M  V30 10 1 11 12
M  V30 11 2 12 13
M  V30 12 1 12 14
M  V30 13 1 14 15
M  V30 14 1 15 16
M  V30 15 2 16 17
M  V30 16 2 16 18
M  V30 17 1 16 19
M  V30 18 1 11 6
M  V30 19 1 14 9
M  V30 END BOND
M  V30 BEGIN COLLECTION
M  V30 MDLV30/STEABS ATOMS=(0)
M  V30 END COLLECTION
M  V30 END CTAB
M  END
$$$$

     RDKit          2D

  0  0  0  0  0  0  0  0  0  0999 V3000
M  V30 BEGIN CTAB
M  V30 COUNTS 11 10 0 0 0
M  V30 BEGIN ATOM
M  V30 1 R 0.000000 2.631678 0.000000 0 MASS=6 VAL=1
M  V30 2 C 1.299038 3.381678 0.000000 0
M  V30 3 N 2.598076 2.631678 0.000000 0
M  V30 4 O 1.299038 4.881678 0.000000 0
M  V30 5 R 2.775976 0.000000 0.000000 0 MASS=13 VAL=1
M  V30 6 C 1.275976 0.000000 0.000000 0
M  V30 7 C 0.394298 1.213525 0.000000 0
M  V30 8 C -1.032286 0.750000 0.000000 0
M  V30 9 R -2.245812 1.631678 0.000000 0 MASS=15 VAL=1
M  V30 10 C -1.032286 -0.750000 0.000000 0
M  V30 11 N 0.394298 -1.213525 0.000000 0
M  V30 END ATOM
M  V30 BEGIN BOND
M  V30 1 1 1 2
M  V30 2 1 2 3
M  V30 3 2 2 4
M  V30 4 1 6 5 CFG=1
M  V30 5 1 6 7
M  V30 6 1 7 8
M  V30 7 1 8 9 CFG=1
M  V30 8 1 8 10
M  V30 9 1 10 11
M  V30 10 1 11 6
M  V30 END BOND
M  V30 BEGIN COLLECTION
M  V30 MDLV30/STEABS ATOMS=(0)
M  V30 END COLLECTION
M  V30 END CTAB
M  END
$$$$

     RDKit          2D

  0  0  0  0  0  0  0  0  0  0999 V3000
M  V30 BEGIN CTAB
M  V30 COUNTS 8 6 0 0 0
M  V30 BEGIN ATOM
M  V30 1 R 0.000000 0.000000 0.000000 0 MASS=6 VAL=1
M  V30 2 C 1.299038 0.750000 0.000000 0
M  V30 3 N 2.598076 -0.000000 0.000000 0
M  V30 4 O 1.299038 2.250000 0.000000 0
M  V30 5 R 0.000000 3.250000 0.000000 0 MASS=8 VAL=1
M  V30 6 C 1.299038 4.000000 0.000000 0
M  V30 7 C 2.598076 3.250000 0.000000 0
M  V30 8 O 1.299038 5.500000 0.000000 0
M  V30 END ATOM
M  V30 BEGIN BOND
M  V30 1 1 1 2
M  V30 2 1 2 3
M  V30 3 2 2 4
M  V30 4 1 6 5 CFG=3
M  V30 5 1 6 7
M  V30 6 1 6 8
M  V30 END BOND
M  V30 BEGIN COLLECTION
M  V30 MDLV30/STEABS ATOMS=(0)
M  V30 END COLLECTION
M  V30 END CTAB
M  END
$$$$

     RDKit          2D

  0  0  0  0  0  0  0  0  0  0999 V3000
M  V30 BEGIN CTAB
M  V30 COUNTS 8 6 0 0 0
M  V30 BEGIN ATOM
M  V30 1 R 0.000000 0.000000 0.000000 0 MASS=1 VAL=1
M  V30 2 C 1.299038 0.750000 0.000000 0
M  V30 3 R 2.598076 -0.000000 0.000000 0 MASS=6 VAL=1
M  V30 4 O 1.299038 2.250000 0.000000 0
M  V30 5 R 0.000000 3.250000 0.000000 0 MASS=6 VAL=1
M  V30 6 C 1.299038 4.000000 0.000000 0
M  V30 7 N 2.598076 3.250000 0.000000 0
M  V30 8 O 1.299038 5.500000 0.000000 0
M  V30 END ATOM
M  V30 BEGIN BOND
M  V30 1 1 1 2
M  V30 2 1 2 3
M  V30 3 2 2 4
M  V30 4 1 5 6
M  V30 5 1 6 7
M  V30 6 2 6 8
M  V30 END BOND
M  V30 BEGIN COLLECTION
M  V30 MDLV30/STEABS ATOMS=(0)
M  V30 END COLLECTION
M  V30 END CTAB
M  END
$$$$

     RDKit          2D

  0  0  0  0  0  0  0  0  0  0999 V3000
M  V30 BEGIN CTAB
M  V30 COUNTS 8 6 0 0 0
M  V30 BEGIN ATOM
M  V30 1 R 0.000000 0.000000 0.000000 0 MASS=1 VAL=1
M  V30 2 C 1.299038 0.750000 0.000000 0
M  V30 3 R 2.598076 -0.000000 0.000000 0 MASS=6 VAL=1
M  V30 4 O 1.299038 2.250000 0.000000 0
M  V30 5 R 0.000000 3.250000 0.000000 0 MASS=1 VAL=1
M  V30 6 C 1.299038 4.000000 0.000000 0
M  V30 7 R 2.598076 3.250000 0.000000 0 MASS=6 VAL=1
M  V30 8 O 1.299038 5.500000 0.000000 0
M  V30 END ATOM
M  V30 BEGIN BOND
M  V30 1 1 1 2
M  V30 2 1 2 3
M  V30 3 2 2 4
M  V30 4 1 5 6
M  V30 5 1 6 7
M  V30 6 2 6 8
M  V30 END BOND
M  V30 BEGIN COLLECTION
M  V30 MDLV30/STEABS ATOMS=(0)
M  V30 END COLLECTION
M  V30 END CTAB
M  END
$$$$

     RDKit          2D

  0  0  0  0  0  0  0  0  0  0999 V3000
M  V30 BEGIN CTAB
M  V30 COUNTS 19 19 0 0 0
M  V30 BEGIN ATOM
M  V30 1 R 3.560660 0.000000 0.000000 0 MASS=1 VAL=1
M  V30 2 C 4.859698 0.750000 0.000000 0
M  V30 3 R 6.158736 -0.000000 0.000000 0 MASS=6 VAL=1
M  V30 4 O 4.859698 2.250000 0.000000 0
M  V30 5 R -4.672067 -2.834950 0.000000 0 MASS=11 VAL=1
M  V30 6 S -3.223178 -3.223178 0.000000 0
M  V30 7 C -2.162518 -2.162518 0.000000 0
M  V30 8 C -0.680986 -2.397170 0.000000 0
M  V30 9 C 0.000000 -3.733680 0.000000 0
M  V30 10 O 1.497944 -3.812184 0.000000 0
M  V30 11 O -0.816959 -4.991686 0.000000 0
M  V30 12 N -0.000000 -1.060660 0.000000 0
M  V30 13 C 1.060660 0.000000 0.000000 0
M  V30 14 O 2.560660 0.000000 0.000000 0
M  V30 15 C 0.000000 1.060660 0.000000 0
M  V30 16 R 0.000000 2.560660 0.000000 0 MASS=15 VAL=1
M  V30 17 C -1.060660 0.000000 0.000000 0
M  V30 18 C -2.397170 -0.680986 0.000000 0
M  V30 19 C -3.733680 0.000000 0.000000 0
M  V30 END ATOM
M  V30 BEGIN BOND
M  V30 1 1 1 2
M  V30 2 1 2 3
M  V30 3 2 2 4
M  V30 4 1 5 6
M  V30 5 1 6 7
M  V30 6 2 7 8
M  V30 7 1 8 9
M  V30 8 2 9 10
M  V30 9 1 9 11
M  V30 10 1 8 12
M  V30 11 1 12 13
M  V30 12 2 13 14
M  V30 13 1 13 15
M  V30 14 1 15 16 CFG=1
M  V30 15 1 15 17
M  V30 16 1 17 18
M  V30 17 1 18 19 CFG=3
M  V30 18 1 18 7
M  V30 19 1 17 12 CFG=3
M  V30 END BOND
M  V30 BEGIN COLLECTION
M  V30 MDLV30/STEABS ATOMS=(0)
M  V30 END COLLECTION
M  V30 END CTAB
M  END
$$$$

     RDKit          2D

  0  0  0  0  0  0  0  0  0  0999 V3000
M  V30 BEGIN CTAB
M  V30 COUNTS 8 6 0 0 0
M  V30 BEGIN ATOM
M  V30 1 R 0.000000 0.000000 0.000000 0 MASS=1 VAL=1
M  V30 2 C 1.299038 0.750000 0.000000 0
M  V30 3 R 2.598076 -0.000000 0.000000 0 MASS=6 VAL=1
M  V30 4 O 1.299038 2.250000 0.000000 0
M  V30 5 R 0.000000 3.250000 0.000000 0 MASS=5 VAL=1
M  V30 6 N 1.299038 4.000000 0.000000 0
M  V30 7 C 2.598076 3.250000 0.000000 0
M  V30 8 C 1.299038 5.500000 0.000000 0
M  V30 END ATOM
M  V30 BEGIN BOND
M  V30 1 1 1 2
M  V30 2 1 2 3
M  V30 3 2 2 4
M  V30 4 1 5 6
M  V30 5 1 6 7
M  V30 6 1 6 8
M  V30 END BOND
M  V30 BEGIN COLLECTION
M  V30 MDLV30/STEABS ATOMS=(0)
M  V30 END COLLECTION
M  V30 END CTAB
M  END
$$$$

     RDKit          2D

  0  0  0  0  0  0  0  0  0  0999 V3000
M  V30 BEGIN CTAB
M  V30 COUNTS 10 8 0 0 0
M  V30 BEGIN ATOM
M  V30 1 R 0.000000 2.299038 0.000000 0 MASS=1 VAL=1
M  V30 2 C 1.299038 3.049038 0.000000 0
M  V30 3 R 2.598076 2.299038 0.000000 0 MASS=6 VAL=1
M  V30 4 O 1.299038 4.549038 0.000000 0
M  V30 5 R -3.000000 -2.598076 0.000000 0 MASS=4 VAL=1
M  V30 6 C -2.250000 -1.299038 0.000000 0
M  V30 7 C -0.750000 -1.299038 0.000000 0
M  V30 8 N 0.000000 0.000000 0.000000 0
M  V30 9 C 1.500000 0.000000 0.000000 0
M  V30 10 N 2.250000 1.299038 0.000000 0
M  V30 END ATOM
M  V30 BEGIN BOND
M  V30 1 1 1 2
M  V30 2 1 2 3
M  V30 3 2 2 4
M  V30 4 1 5 6
M  V30 5 1 6 7
M  V30 6 1 7 8
M  V30 7 2 8 9
M  V30 8 1 9 10
M  V30 END BOND
M  V30 BEGIN COLLECTION
M  V30 MDLV30/STEABS ATOMS=(0)
M  V30 END COLLECTION
M  V30 END CTAB
M  END
$$$$

     RDKit          2D

  0  0  0  0  0  0  0  0  0  0999 V3000
M  V30 BEGIN CTAB
M  V30 COUNTS 18 18 0 0 0
M  V30 BEGIN ATOM
M  V30 1 R 0.000000 4.754828 0.000000 0 MASS=1 VAL=1
M  V30 2 C 1.299038 5.504828 0.000000 0
M  V30 3 R 2.598076 4.754828 0.000000 0 MASS=6 VAL=1
M  V30 4 O 1.299038 7.004828 0.000000 0
M  V30 5 R 3.525976 -1.299038 0.000000 0 MASS=11 VAL=1
M  V30 6 S 2.775976 0.000000 0.000000 0
M  V30 7 C 1.275976 0.000000 0.000000 0
M  V30 8 C 0.394298 1.213525 0.000000 0
M  V30 9 C 0.857824 2.640110 0.000000 0
M  V30 10 O -0.145872 3.754828 0.000000 0
M  V30 11 O 2.325045 2.951978 0.000000 0
M  V30 12 N -1.032286 0.750000 0.000000 0
M  V30 13 C -2.532286 0.750000 0.000000 0
M  V30 14 O -3.592947 1.810660 0.000000 0
M  V30 15 C -2.532286 -0.750000 0.000000 0
M  V30 16 R -3.592947 -1.810660 0.000000 0 MASS=15 VAL=1
M  V30 17 C -1.032286 -0.750000 0.000000 0
M  V30 18 C 0.394298 -1.213525 0.000000 0
M  V30 END ATOM
M  V30 BEGIN BOND
M  V30 1 1 1 2
M  V30 2 1 2 3
M  V30 3 2 2 4
M  V30 4 1 5 6
M  V30 5 1 6 7
M  V30 6 2 7 8
M  V30 7 1 8 9
M  V30 8 2 9 10
M  V30 9 1 9 11
M  V30 10 1 8 12
M  V30 11 1 12 13
M  V30 12 2 13 14
M  V30 13 1 13 15
M  V30 14 1 15 16 CFG=1
M  V30 15 1 15 17
M  V30 16 1 17 18 CFG=3
M  V30 17 1 18 7
M  V30 18 1 17 12
M  V30 END BOND
M  V30 BEGIN COLLECTION
M  V30 MDLV30/STEABS ATOMS=(0)
M  V30 END COLLECTION
M  V30 END CTAB
M  END
$$$$

     RDKit          2D

  0  0  0  0  0  0  0  0  0  0999 V3000
M  V30 BEGIN CTAB
M  V30 COUNTS 19 19 0 0 0
M  V30 BEGIN ATOM
M  V30 1 R 0.000000 4.794517 0.000000 0 MASS=1 VAL=1
M  V30 2 C 1.299038 5.544517 0.000000 0
M  V30 3 R 2.598076 4.794517 0.000000 0 MASS=6 VAL=1
M  V30 4 O 1.299038 7.044517 0.000000 0
M  V30 5 R 3.000000 0.000000 0.000000 0 MASS=13 VAL=1
M  V30 6 C 1.500000 0.000000 0.000000 0
M  V30 7 C 0.750000 -1.299038 0.000000 0
M  V30 8 C -0.750000 -1.299038 0.000000 0
M  V30 9 C -1.500000 0.000000 0.000000 0
M  V30 10 C -0.750000 1.299038 0.000000 0
M  V30 11 N 0.750000 1.299038 0.000000 0
M  V30 12 C -0.364717 2.302734 0.000000 0
M  V30 13 O -0.207925 3.794517 0.000000 0
M  V30 14 N -1.663755 1.552734 0.000000 0
M  V30 15 O -3.034074 2.162839 0.000000 0
M  V30 16 S -4.247599 1.281161 0.000000 0
M  V30 17 O -5.129277 2.494687 0.000000 0
M  V30 18 O -3.365921 0.067636 0.000000 0
M  V30 19 O -5.461125 0.399483 0.000000 0
M  V30 END ATOM
M  V30 BEGIN BOND
M  V30 1 1 1 2
M  V30 2 1 2 3
M  V30 3 2 2 4
M  V30 4 1 6 5 CFG=3
M  V30 5 1 6 7
M  V30 6 1 7 8
M  V30 7 1 9 8 CFG=1
M  V30 8 1 9 10
M  V30 9 1 10 11
M  V30 10 1 11 12
M  V30 11 2 12 13
M  V30 12 1 12 14
M  V30 13 1 14 15
M  V30 14 1 15 16
M  V30 15 2 16 17
M  V30 16 2 16 18
M  V30 17 1 16 19
M  V30 18 1 11 6
M  V30 19 1 14 9
M  V30 END BOND
M  V30 BEGIN COLLECTION
M  V30 MDLV30/STEABS ATOMS=(0)
M  V30 END COLLECTION
M  V30 END CTAB
M  END
$$$$

     RDKit          2D

  0  0  0  0  0  0  0  0  0  0999 V3000
M  V30 BEGIN CTAB
M  V30 COUNTS 11 10 0 0 0
M  V30 BEGIN ATOM
M  V30 1 R 0.000000 2.631678 0.000000 0 MASS=1 VAL=1
M  V30 2 C 1.299038 3.381678 0.000000 0
M  V30 3 R 2.598076 2.631678 0.000000 0 MASS=6 VAL=1
M  V30 4 O 1.299038 4.881678 0.000000 0
M  V30 5 R 2.775976 0.000000 0.000000 0 MASS=13 VAL=1
M  V30 6 C 1.275976 0.000000 0.000000 0
M  V30 7 C 0.394298 1.213525 0.000000 0
M  V30 8 C -1.032286 0.750000 0.000000 0
M  V30 9 R -2.245812 1.631678 0.000000 0 MASS=15 VAL=1
M  V30 10 C -1.032286 -0.750000 0.000000 0
M  V30 11 N 0.394298 -1.213525 0.000000 0
M  V30 END ATOM
M  V30 BEGIN BOND
M  V30 1 1 1 2
M  V30 2 1 2 3
M  V30 3 2 2 4
M  V30 4 1 6 5 CFG=1
M  V30 5 1 6 7
M  V30 6 1 7 8
M  V30 7 1 8 9 CFG=1
M  V30 8 1 8 10
M  V30 9 1 10 11
M  V30 10 1 11 6
M  V30 END BOND
M  V30 BEGIN COLLECTION
M  V30 MDLV30/STEABS ATOMS=(0)
M  V30 END COLLECTION
M  V30 END CTAB
M  END
$$$$

     RDKit          2D

  0  0  0  0  0  0  0  0  0  0999 V3000
M  V30 BEGIN CTAB
M  V30 COUNTS 8 6 0 0 0
M  V30 BEGIN ATOM
M  V30 1 R 0.000000 0.000000 0.000000 0 MASS=1 VAL=1
M  V30 2 C 1.299038 0.750000 0.000000 0
M  V30 3 R 2.598076 -0.000000 0.000000 0 MASS=6 VAL=1
M  V30 4 O 1.299038 2.250000 0.000000 0
M  V30 5 R 0.000000 3.250000 0.000000 0 MASS=8 VAL=1
M  V30 6 C 1.299038 4.000000 0.000000 0
M  V30 7 C 2.598076 3.250000 0.000000 0
M  V30 8 O 1.299038 5.500000 0.000000 0
M  V30 END ATOM
M  V30 BEGIN BOND
M  V30 1 1 1 2
M  V30 2 1 2 3
M  V30 3 2 2 4
M  V30 4 1 6 5 CFG=3
M  V30 5 1 6 7
M  V30 6 1 6 8
M  V30 END BOND
M  V30 BEGIN COLLECTION
M  V30 MDLV30/STEABS ATOMS=(0)
M  V30 END COLLECTION
M  V30 END CTAB
M  END
$$$$

     RDKit          2D

  0  0  0  0  0  0  0  0  0  0999 V3000
M  V30 BEGIN CTAB
M  V30 COUNTS 19 19 0 0 0
M  V30 BEGIN ATOM
M  V30 1 R -4.672067 -2.834950 0.000000 0 MASS=11 VAL=1
M  V30 2 S -3.223178 -3.223178 0.000000 0
M  V30 3 C -2.162518 -2.162518 0.000000 0
M  V30 4 C -0.680986 -2.397170 0.000000 0
M  V30 5 C 0.000000 -3.733680 0.000000 0
M  V30 6 O 1.497944 -3.812184 0.000000 0
M  V30 7 O -0.816959 -4.991686 0.000000 0
M  V30 8 N -0.000000 -1.060660 0.000000 0
M  V30 9 C 1.060660 0.000000 0.000000 0
M  V30 10 O 2.560660 0.000000 0.000000 0
M  V30 11 C 0.000000 1.060660 0.000000 0
M  V30 12 R 0.000000 2.560660 0.000000 0 MASS=15 VAL=1
M  V30 13 C -1.060660 0.000000 0.000000 0
M  V30 14 C -2.397170 -0.680986 0.000000 0
M  V30 15 C -3.733680 0.000000 0.000000 0
M  V30 16 R 3.560660 0.000000 0.000000 0 MASS=6 VAL=1
M  V30 17 C 4.859698 0.750000 0.000000 0
M  V30 18 N 6.158736 -0.000000 0.000000 0
M  V30 19 O 4.859698 2.250000 0.000000 0
M  V30 END ATOM
M  V30 BEGIN BOND
M  V30 1 1 1 2
M  V30 2 1 2 3
M  V30 3 2 3 4
M  V30 4 1 4 5
M  V30 5 2 5 6
M  V30 6 1 5 7
M  V30 7 1 4 8
M  V30 8 1 8 9
M  V30 9 2 9 10
M  V30 10 1 9 11
M  V30 11 1 11 12 CFG=1
M  V30 12 1 11 13
M  V30 13 1 13 14
M  V30 14 1 14 15 CFG=3
M  V30 15 1 14 3
M  V30 16 1 13 8 CFG=3
M  V30 17 1 16 17
M  V30 18 1 17 18
M  V30 19 2 17 19
M  V30 END BOND
M  V30 BEGIN COLLECTION
M  V30 MDLV30/STEABS ATOMS=(0)
M  V30 END COLLECTION
M  V30 END CTAB
M  END
$$$$

     RDKit          2D

  0  0  0  0  0  0  0  0  0  0999 V3000
M  V30 BEGIN CTAB
M  V30 COUNTS 19 19 0 0 0
M  V30 BEGIN ATOM
M  V30 1 R -4.672067 -2.834950 0.000000 0 MASS=11 VAL=1
M  V30 2 S -3.223178 -3.223178 0.000000 0
M  V30 3 C -2.162518 -2.162518 0.000000 0
M  V30 4 C -0.680986 -2.397170 0.000000 0
M  V30 5 C 0.000000 -3.733680 0.000000 0
M  V30 6 O 1.497944 -3.812184 0.000000 0
M  V30 7 O -0.816959 -4.991686 0.000000 0
M  V30 8 N -0.000000 -1.060660 0.000000 0
M  V30 9 C 1.060660 0.000000 0.000000 0
M  V30 10 O 2.560660 0.000000 0.000000 0
M  V30 11 C 0.000000 1.060660 0.000000 0
M  V30 12 R 0.000000 2.560660 0.000000 0 MASS=15 VAL=1
M  V30 13 C -1.060660 0.000000 0.000000 0
M  V30 14 C -2.397170 -0.680986 0.000000 0
M  V30 15 C -3.733680 0.000000 0.000000 0
M  V30 16 R 3.560660 0.000000 0.000000 0 MASS=1 VAL=1
M  V30 17 C 4.859698 0.750000 0.000000 0
M  V30 18 R 6.158736 -0.000000 0.000000 0 MASS=6 VAL=1
M  V30 19 O 4.859698 2.250000 0.000000 0
M  V30 END ATOM
M  V30 BEGIN BOND
M  V30 1 1 1 2
M  V30 2 1 2 3
M  V30 3 2 3 4
M  V30 4 1 4 5
M  V30 5 2 5 6
M  V30 6 1 5 7
M  V30 7 1 4 8
M  V30 8 1 8 9
M  V30 9 2 9 10
M  V30 10 1 9 11
M  V30 11 1 11 12 CFG=1
M  V30 12 1 11 13
M  V30 13 1 13 14
M  V30 14 1 14 15 CFG=3
M  V30 15 1 14 3
M  V30 16 1 13 8 CFG=3
M  V30 17 1 16 17
M  V30 18 1 17 18
M  V30 19 2 17 19
M  V30 END BOND
M  V30 BEGIN COLLECTION
M  V30 MDLV30/STEABS ATOMS=(0)
M  V30 END COLLECTION
M  V30 END CTAB
M  END
$$$$

     RDKit          2D

  0  0  0  0  0  0  0  0  0  0999 V3000
M  V30 BEGIN CTAB
M  V30 COUNTS 30 32 0 0 0
M  V30 BEGIN ATOM
M  V30 1 R -4.672067 -2.834950 0.000000 0 MASS=11 VAL=1
M  V30 2 S -3.223178 -3.223178 0.000000 0
M  V30 3 C -2.162518 -2.162518 0.000000 0
M  V30 4 C -0.680986 -2.397170 0.000000 0
M  V30 5 C 0.000000 -3.733680 0.000000 0
M  V30 6 O 1.497944 -3.812184 0.000000 0
M  V30 7 O -0.816959 -4.991686 0.000000 0
M  V30 8 N -0.000000 -1.060660 0.000000 0
M  V30 9 C 1.060660 0.000000 0.000000 0
M  V30 10 O 2.560660 0.000000 0.000000 0
M  V30 11 C 0.000000 1.060660 0.000000 0
M  V30 12 R 0.000000 2.560660 0.000000 0 MASS=15 VAL=1
M  V30 13 C -1.060660 0.000000 0.000000 0
M  V30 14 C -2.397170 -0.680986 0.000000 0
M  V30 15 C -3.733680 0.000000 0.000000 0
M  V30 16 R 3.560660 -2.834950 0.000000 0 MASS=11 VAL=1
M  V30 17 S 5.009549 -3.223178 0.000000 0
M  V30 18 C 6.070209 -2.162518 0.000000 0
M  V30 19 C 7.551742 -2.397170 0.000000 0
M  V30 20 C 8.232727 -3.733680 0.000000 0
M  V30 21 O 9.730672 -3.812184 0.000000 0
M  V30 22 O 7.415769 -4.991686 0.000000 0
M  V30 23 N 8.232727 -1.060660 0.000000 0
M  V30 24 C 9.293388 0.000000 0.000000 0
M  V30 25 O 10.793388 0.000000 0.000000 0
M  V30 26 C 8.232727 1.060660 0.000000 0
M  V30 27 R 8.232727 2.560660 0.000000 0 MASS=15 VAL=1
M  V30 28 C 7.172067 0.000000 0.000000 0
M  V30 29 C 5.835557 -0.680986 0.000000 0
M  V30 30 C 4.499048 0.000000 0.000000 0
M  V30 END ATOM
M  V30 BEGIN BOND
M  V30 1 1 1 2
M  V30 2 1 2 3
M  V30 3 2 3 4
M  V30 4 1 4 5
M  V30 5 2 5 6
M  V30 6 1 5 7
M  V30 7 1 4 8
M  V30 8 1 8 9
M  V30 9 2 9 10
M  V30 10 1 9 11
M  V30 11 1 11 12 CFG=1
M  V30 12 1 11 13
M  V30 13 1 13 14
M  V30 14 1 14 15 CFG=3
M  V30 15 1 14 3
M  V30 16 1 13 8 CFG=3
M  V30 17 1 16 17
M  V30 18 1 17 18
M  V30 19 2 18 19
M  V30 20 1 19 20
M  V30 21 2 20 21
M  V30 22 1 20 22
M  V30 23 1 19 23
M  V30 24 1 23 24
M  V30 25 2 24 25
M  V30 26 1 24 26
M  V30 27 1 26 27 CFG=1
M  V30 28 1 26 28
M  V30 29 1 28 29
M  V30 30 1 29 30 CFG=3
M  V30 31 1 29 18
M  V30 32 1 28 23 CFG=3
M  V30 END BOND
M  V30 BEGIN COLLECTION
M  V30 MDLV30/STEABS ATOMS=(0)
M  V30 END COLLECTION
M  V30 END CTAB
M  END
$$$$

     RDKit          2D

  0  0  0  0  0  0  0  0  0  0999 V3000
M  V30 BEGIN CTAB
M  V30 COUNTS 19 19 0 0 0
M  V30 BEGIN ATOM
M  V30 1 R -4.672067 -2.834950 0.000000 0 MASS=11 VAL=1
M  V30 2 S -3.223178 -3.223178 0.000000 0
M  V30 3 C -2.162518 -2.162518 0.000000 0
M  V30 4 C -0.680986 -2.397170 0.000000 0
M  V30 5 C 0.000000 -3.733680 0.000000 0
M  V30 6 O 1.497944 -3.812184 0.000000 0
M  V30 7 O -0.816959 -4.991686 0.000000 0
M  V30 8 N -0.000000 -1.060660 0.000000 0
M  V30 9 C 1.060660 0.000000 0.000000 0
M  V30 10 O 2.560660 0.000000 0.000000 0
M  V30 11 C 0.000000 1.060660 0.000000 0
M  V30 12 R 0.000000 2.560660 0.000000 0 MASS=15 VAL=1
M  V30 13 C -1.060660 0.000000 0.000000 0
M  V30 14 C -2.397170 -0.680986 0.000000 0
M  V30 15 C -3.733680 0.000000 0.000000 0
M  V30 16 R 3.560660 0.000000 0.000000 0 MASS=5 VAL=1
M  V30 17 N 4.859698 0.750000 0.000000 0
M  V30 18 C 6.158736 -0.000000 0.000000 0
M  V30 19 C 4.859698 2.250000 0.000000 0
M  V30 END ATOM
M  V30 BEGIN BOND
M  V30 1 1 1 2
M  V30 2 1 2 3
M  V30 3 2 3 4
M  V30 4 1 4 5
M  V30 5 2 5 6
M  V30 6 1 5 7
M  V30 7 1 4 8
M  V30 8 1 8 9
M  V30 9 2 9 10
M  V30 10 1 9 11
M  V30 11 1 11 12 CFG=1
M  V30 12 1 11 13
M  V30 13 1 13 14
M  V30 14 1 14 15 CFG=3
M  V30 15 1 14 3
M  V30 16 1 13 8 CFG=3
M  V30 17 1 16 17
M  V30 18 1 17 18
M  V30 19 1 17 19
M  V30 END BOND
M  V30 BEGIN COLLECTION
M  V30 MDLV30/STEABS ATOMS=(0)
M  V30 END COLLECTION
M  V30 END CTAB
M  END
$$$$

     RDKit          2D

  0  0  0  0  0  0  0  0  0  0999 V3000
M  V30 BEGIN CTAB
M  V30 COUNTS 21 21 0 0 0
M  V30 BEGIN ATOM
M  V30 1 R -4.672067 -2.834950 0.000000 0 MASS=11 VAL=1
M  V30 2 S -3.223178 -3.223178 0.000000 0
M  V30 3 C -2.162518 -2.162518 0.000000 0
M  V30 4 C -0.680986 -2.397170 0.000000 0
M  V30 5 C 0.000000 -3.733680 0.000000 0
M  V30 6 O 1.497944 -3.812184 0.000000 0
M  V30 7 O -0.816959 -4.991686 0.000000 0
M  V30 8 N -0.000000 -1.060660 0.000000 0
M  V30 9 C 1.060660 0.000000 0.000000 0
M  V30 10 O 2.560660 0.000000 0.000000 0
M  V30 11 C 0.000000 1.060660 0.000000 0
M  V30 12 R 0.000000 2.560660 0.000000 0 MASS=15 VAL=1
M  V30 13 C -1.060660 0.000000 0.000000 0
M  V30 14 C -2.397170 -0.680986 0.000000 0
M  V30 15 C -3.733680 0.000000 0.000000 0
M  V30 16 R 3.560660 -2.598076 0.000000 0 MASS=4 VAL=1
M  V30 17 C 4.310660 -1.299038 0.000000 0
M  V30 18 C 5.810660 -1.299038 0.000000 0
M  V30 19 N 6.560660 0.000000 0.000000 0
M  V30 20 C 8.060660 0.000000 0.000000 0
M  V30 21 N 8.810660 1.299038 0.000000 0
M  V30 END ATOM
M  V30 BEGIN BOND
M  V30 1 1 1 2
M  V30 2 1 2 3
M  V30 3 2 3 4
M  V30 4 1 4 5
M  V30 5 2 5 6
M  V30 6 1 5 7
M  V30 7 1 4 8
M  V30 8 1 8 9
M  V30 9 2 9 10
M  V30 10 1 9 11
M  V30 11 1 11 12 CFG=1
M  V30 12 1 11 13
M  V30 13 1 13 14
M  V30 14 1 14 15 CFG=3
M  V30 15 1 14 3
M  V30 16 1 13 8 CFG=3
M  V30 17 1 16 17
M  V30 18 1 17 18
M  V30 19 1 18 19
M  V30 20 2 19 20
M  V30 21 1 20 21
M  V30 END BOND
M  V30 BEGIN COLLECTION
M  V30 MDLV30/STEABS ATOMS=(0)
M  V30 END COLLECTION
M  V30 END CTAB
M  END
$$$$

     RDKit          2D

  0  0  0  0  0  0  0  0  0  0999 V3000
M  V30 BEGIN CTAB
M  V30 COUNTS 29 31 0 0 0
M  V30 BEGIN ATOM
M  V30 1 R -4.672067 -2.834950 0.000000 0 MASS=11 VAL=1
M  V30 2 S -3.223178 -3.223178 0.000000 0
M  V30 3 C -2.162518 -2.162518 0.000000 0
M  V30 4 C -0.680986 -2.397170 0.000000 0
M  V30 5 C 0.000000 -3.733680 0.000000 0
M  V30 6 O 1.497944 -3.812184 0.000000 0
M  V30 7 O -0.816959 -4.991686 0.000000 0
M  V30 8 N -0.000000 -1.060660 0.000000 0
M  V30 9 C 1.060660 0.000000 0.000000 0
M  V30 10 O 2.560660 0.000000 0.000000 0
M  V30 11 C 0.000000 1.060660 0.000000 0
M  V30 12 R 0.000000 2.560660 0.000000 0 MASS=15 VAL=1
M  V30 13 C -1.060660 0.000000 0.000000 0
M  V30 14 C -2.397170 -0.680986 0.000000 0
M  V30 15 C -3.733680 0.000000 0.000000 0
M  V30 16 R 10.679583 -1.299038 0.000000 0 MASS=11 VAL=1
M  V30 17 S 9.929583 0.000000 0.000000 0
M  V30 18 C 8.429583 0.000000 0.000000 0
M  V30 19 C 7.547905 1.213525 0.000000 0
M  V30 20 C 8.011431 2.640110 0.000000 0
M  V30 21 O 7.007735 3.754828 0.000000 0
M  V30 22 O 9.478652 2.951978 0.000000 0
M  V30 23 N 6.121320 0.750000 0.000000 0
M  V30 24 C 4.621320 0.750000 0.000000 0
M  V30 25 O 3.560660 1.810660 0.000000 0
M  V30 26 C 4.621320 -0.750000 0.000000 0
M  V30 27 R 3.560660 -1.810660 0.000000 0 MASS=15 VAL=1
M  V30 28 C 6.121320 -0.750000 0.000000 0
M  V30 29 C 7.547905 -1.213525 0.000000 0
M  V30 END ATOM
M  V30 BEGIN BOND
M  V30 1 1 1 2
M  V30 2 1 2 3
M  V30 3 2 3 4
M  V30 4 1 4 5
M  V30 5 2 5 6
M  V30 6 1 5 7
M  V30 7 1 4 8
M  V30 8 1 8 9
M  V30 9 2 9 10
M  V30 10 1 9 11
M  V30 11 1 11 12 CFG=1
M  V30 12 1 11 13
M  V30 13 1 13 14
M  V30 14 1 14 15 CFG=3
M  V30 15 1 14 3
M  V30 16 1 13 8 CFG=3
M  V30 17 1 16 17
M  V30 18 1 17 18
M  V30 19 2 18 19
M  V30 20 1 19 20
M  V30 21 2 20 21
M  V30 22 1 20 22
M  V30 23 1 19 23
M  V30 24 1 23 24
M  V30 25 2 24 25
M  V30 26 1 24 26
M  V30 27 1 26 27 CFG=1
M  V30 28 1 26 28
M  V30 29 1 28 29 CFG=3
M  V30 30 1 29 18
M  V30 31 1 28 23
M  V30 END BOND
M  V30 BEGIN COLLECTION
M  V30 MDLV30/STEABS ATOMS=(0)
M  V30 END COLLECTION
M  V30 END CTAB
M  END
$$$$

     RDKit          2D

  0  0  0  0  0  0  0  0  0  0999 V3000
M  V30 BEGIN CTAB
M  V30 COUNTS 30 32 0 0 0
M  V30 BEGIN ATOM
M  V30 1 R -4.672067 -2.834950 0.000000 0 MASS=11 VAL=1
M  V30 2 S -3.223178 -3.223178 0.000000 0
M  V30 3 C -2.162518 -2.162518 0.000000 0
M  V30 4 C -0.680986 -2.397170 0.000000 0
M  V30 5 C 0.000000 -3.733680 0.000000 0
M  V30 6 O 1.497944 -3.812184 0.000000 0
M  V30 7 O -0.816959 -4.991686 0.000000 0
M  V30 8 N -0.000000 -1.060660 0.000000 0
M  V30 9 C 1.060660 0.000000 0.000000 0
M  V30 10 O 2.560660 0.000000 0.000000 0
M  V30 11 C 0.000000 1.060660 0.000000 0
M  V30 12 R 0.000000 2.560660 0.000000 0 MASS=15 VAL=1
M  V30 13 C -1.060660 0.000000 0.000000 0
M  V30 14 C -2.397170 -0.680986 0.000000 0
M  V30 15 C -3.733680 0.000000 0.000000 0
M  V30 16 R 12.021785 0.000000 0.000000 0 MASS=13 VAL=1
M  V30 17 C 10.521785 0.000000 0.000000 0
M  V30 18 C 9.771785 -1.299038 0.000000 0
M  V30 19 C 8.271785 -1.299038 0.000000 0
M  V30 20 C 7.521785 0.000000 0.000000 0
M  V30 21 C 8.271785 1.299038 0.000000 0
M  V30 22 N 9.771785 1.299038 0.000000 0
M  V30 23 C 8.657067 2.302734 0.000000 0
M  V30 24 O 8.813860 3.794517 0.000000 0
M  V30 25 N 7.358029 1.552734 0.000000 0
M  V30 26 O 5.987711 2.162839 0.000000 0
M  V30 27 S 4.774186 1.281161 0.000000 0
M  V30 28 O 3.892508 2.494687 0.000000 0
M  V30 29 O 5.655864 0.067636 0.000000 0
M  V30 30 O 3.560660 0.399483 0.000000 0
M  V30 END ATOM
M  V30 BEGIN BOND
M  V30 1 1 1 2
M  V30 2 1 2 3
M  V30 3 2 3 4
M  V30 4 1 4 5
M  V30 5 2 5 6
M  V30 6 1 5 7
M  V30 7 1 4 8
M  V30 8 1 8 9
M  V30 9 2 9 10
M  V30 10 1 9 11
M  V30 11 1 11 12 CFG=1
M  V30 12 1 11 13
M  V30 13 1 13 14
M  V30 14 1 14 15 CFG=3
M  V30 15 1 14 3
M  V30 16 1 13 8 CFG=3
M  V30 17 1 17 16 CFG=3
M  V30 18 1 17 18
M  V30 19 1 18 19
M  V30 20 1 20 19 CFG=1
M  V30 21 1 20 21
M  V30 22 1 21 22
M  V30 23 1 22 23
M  V30 24 2 23 24
M  V30 25 1 23 25
M  V30 26 1 25 26
M  V30 27 1 26 27
M  V30 28 2 27 28
M  V30 29 2 27 29
M  V30 30 1 27 30
M  V30 31 1 22 17
M  V30 32 1 25 20
M  V30 END BOND
M  V30 BEGIN COLLECTION
M  V30 MDLV30/STEABS ATOMS=(0)
M  V30 END COLLECTION
M  V30 END CTAB
M  END
$$$$

     RDKit          2D

  0  0  0  0  0  0  0  0  0  0999 V3000
M  V30 BEGIN CTAB
M  V30 COUNTS 22 23 0 0 0
M  V30 BEGIN ATOM
M  V30 1 R -4.672067 -2.834950 0.000000 0 MASS=11 VAL=1
M  V30 2 S -3.223178 -3.223178 0.000000 0
M  V30 3 C -2.162518 -2.162518 0.000000 0
M  V30 4 C -0.680986 -2.397170 0.000000 0
M  V30 5 C 0.000000 -3.733680 0.000000 0
M  V30 6 O 1.497944 -3.812184 0.000000 0
M  V30 7 O -0.816959 -4.991686 0.000000 0
M  V30 8 N -0.000000 -1.060660 0.000000 0
M  V30 9 C 1.060660 0.000000 0.000000 0
M  V30 10 O 2.560660 0.000000 0.000000 0
M  V30 11 C 0.000000 1.060660 0.000000 0
M  V30 12 R 0.000000 2.560660 0.000000 0 MASS=15 VAL=1
M  V30 13 C -1.060660 0.000000 0.000000 0
M  V30 14 C -2.397170 -0.680986 0.000000 0
M  V30 15 C -3.733680 0.000000 0.000000 0
M  V30 16 R 8.582448 0.000000 0.000000 0 MASS=13 VAL=1
M  V30 17 C 7.082448 0.000000 0.000000 0
M  V30 18 C 6.200770 1.213525 0.000000 0
M  V30 19 C 4.774186 0.750000 0.000000 0
M  V30 20 R 3.560660 1.631678 0.000000 0 MASS=15 VAL=1
M  V30 21 C 4.774186 -0.750000 0.000000 0
M  V30 22 N 6.200770 -1.213525 0.000000 0
M  V30 END ATOM
M  V30 BEGIN BOND
M  V30 1 1 1 2
M  V30 2 1 2 3
M  V30 3 2 3 4
M  V30 4 1 4 5
M  V30 5 2 5 6
M  V30 6 1 5 7
M  V30 7 1 4 8
M  V30 8 1 8 9
M  V30 9 2 9 10
M  V30 10 1 9 11
M  V30 11 1 11 12 CFG=1
M  V30 12 1 11 13
M  V30 13 1 13 14
M  V30 14 1 14 15 CFG=3
M  V30 15 1 14 3
M  V30 16 1 13 8 CFG=3
M  V30 17 1 17 16 CFG=1
M  V30 18 1 17 18
M  V30 19 1 18 19
M  V30 20 1 19 20 CFG=1
M  V30 21 1 19 21
M  V30 22 1 21 22
M  V30 23 1 22 17
M  V30 END BOND
M  V30 BEGIN COLLECTION
M  V30 MDLV30/STEABS ATOMS=(0)
M  V30 END COLLECTION
M  V30 END CTAB
M  END
$$$$

     RDKit          2D

  0  0  0  0  0  0  0  0  0  0999 V3000
M  V30 BEGIN CTAB
M  V30 COUNTS 19 19 0 0 0
M  V30 BEGIN ATOM
M  V30 1 R -4.672067 -2.834950 0.000000 0 MASS=11 VAL=1
M  V30 2 S -3.223178 -3.223178 0.000000 0
M  V30 3 C -2.162518 -2.162518 0.000000 0
M  V30 4 C -0.680986 -2.397170 0.000000 0
M  V30 5 C 0.000000 -3.733680 0.000000 0
M  V30 6 O 1.497944 -3.812184 0.000000 0
M  V30 7 O -0.816959 -4.991686 0.000000 0
M  V30 8 N -0.000000 -1.060660 0.000000 0
M  V30 9 C 1.060660 0.000000 0.000000 0
M  V30 10 O 2.560660 0.000000 0.000000 0
M  V30 11 C 0.000000 1.060660 0.000000 0
M  V30 12 R 0.000000 2.560660 0.000000 0 MASS=15 VAL=1
M  V30 13 C -1.060660 0.000000 0.000000 0
M  V30 14 C -2.397170 -0.680986 0.000000 0
M  V30 15 C -3.733680 0.000000 0.000000 0
M  V30 16 R 3.560660 0.000000 0.000000 0 MASS=8 VAL=1
M  V30 17 C 4.859698 0.750000 0.000000 0
M  V30 18 C 6.158736 -0.000000 0.000000 0
M  V30 19 O 4.859698 2.250000 0.000000 0
M  V30 END ATOM
M  V30 BEGIN BOND
M  V30 1 1 1 2
M  V30 2 1 2 3
M  V30 3 2 3 4
M  V30 4 1 4 5
M  V30 5 2 5 6
M  V30 6 1 5 7
M  V30 7 1 4 8
M  V30 8 1 8 9
M  V30 9 2 9 10
M  V30 10 1 9 11
M  V30 11 1 11 12 CFG=1
M  V30 12 1 11 13
M  V30 13 1 13 14
M  V30 14 1 14 15 CFG=3
M  V30 15 1 14 3
M  V30 16 1 13 8 CFG=3
M  V30 17 1 17 16 CFG=3
M  V30 18 1 17 18
M  V30 19 1 17 19
M  V30 END BOND
M  V30 BEGIN COLLECTION
M  V30 MDLV30/STEABS ATOMS=(0)
M  V30 END COLLECTION
M  V30 END CTAB
M  END
$$$$

     RDKit          2D

  0  0  0  0  0  0  0  0  0  0999 V3000
M  V30 BEGIN CTAB
M  V30 COUNTS 8 6 0 0 0
M  V30 BEGIN ATOM
M  V30 1 R 0.000000 0.000000 0.000000 0 MASS=5 VAL=1
M  V30 2 N 1.299038 0.750000 0.000000 0
M  V30 3 C 2.598076 -0.000000 0.000000 0
M  V30 4 C 1.299038 2.250000 0.000000 0
M  V30 5 R 0.000000 3.250000 0.000000 0 MASS=6 VAL=1
M  V30 6 C 1.299038 4.000000 0.000000 0
M  V30 7 N 2.598076 3.250000 0.000000 0
M  V30 8 O 1.299038 5.500000 0.000000 0
M  V30 END ATOM
M  V30 BEGIN BOND
M  V30 1 1 1 2
M  V30 2 1 2 3
M  V30 3 1 2 4
M  V30 4 1 5 6
M  V30 5 1 6 7
M  V30 6 2 6 8
M  V30 END BOND
M  V30 BEGIN COLLECTION
M  V30 MDLV30/STEABS ATOMS=(0)
M  V30 END COLLECTION
M  V30 END CTAB
M  END
$$$$

     RDKit          2D

  0  0  0  0  0  0  0  0  0  0999 V3000
M  V30 BEGIN CTAB
M  V30 COUNTS 8 6 0 0 0
M  V30 BEGIN ATOM
M  V30 1 R 0.000000 0.000000 0.000000 0 MASS=5 VAL=1
M  V30 2 N 1.299038 0.750000 0.000000 0
M  V30 3 C 2.598076 -0.000000 0.000000 0
M  V30 4 C 1.299038 2.250000 0.000000 0
M  V30 5 R 0.000000 3.250000 0.000000 0 MASS=1 VAL=1
M  V30 6 C 1.299038 4.000000 0.000000 0
M  V30 7 R 2.598076 3.250000 0.000000 0 MASS=6 VAL=1
M  V30 8 O 1.299038 5.500000 0.000000 0
M  V30 END ATOM
M  V30 BEGIN BOND
M  V30 1 1 1 2
M  V30 2 1 2 3
M  V30 3 1 2 4
M  V30 4 1 5 6
M  V30 5 1 6 7
M  V30 6 2 6 8
M  V30 END BOND
M  V30 BEGIN COLLECTION
M  V30 MDLV30/STEABS ATOMS=(0)
M  V30 END COLLECTION
M  V30 END CTAB
M  END
$$$$

     RDKit          2D

  0  0  0  0  0  0  0  0  0  0999 V3000
M  V30 BEGIN CTAB
M  V30 COUNTS 19 19 0 0 0
M  V30 BEGIN ATOM
M  V30 1 R 3.560660 0.000000 0.000000 0 MASS=5 VAL=1
M  V30 2 N 4.859698 0.750000 0.000000 0
M  V30 3 C 6.158736 -0.000000 0.000000 0
M  V30 4 C 4.859698 2.250000 0.000000 0
M  V30 5 R -4.672067 -2.834950 0.000000 0 MASS=11 VAL=1
M  V30 6 S -3.223178 -3.223178 0.000000 0
M  V30 7 C -2.162518 -2.162518 0.000000 0
M  V30 8 C -0.680986 -2.397170 0.000000 0
M  V30 9 C 0.000000 -3.733680 0.000000 0
M  V30 10 O 1.497944 -3.812184 0.000000 0
M  V30 11 O -0.816959 -4.991686 0.000000 0
M  V30 12 N -0.000000 -1.060660 0.000000 0
M  V30 13 C 1.060660 0.000000 0.000000 0
M  V30 14 O 2.560660 0.000000 0.000000 0
M  V30 15 C 0.000000 1.060660 0.000000 0
M  V30 16 R 0.000000 2.560660 0.000000 0 MASS=15 VAL=1
M  V30 17 C -1.060660 0.000000 0.000000 0
M  V30 18 C -2.397170 -0.680986 0.000000 0
M  V30 19 C -3.733680 0.000000 0.000000 0
M  V30 END ATOM
M  V30 BEGIN BOND
M  V30 1 1 1 2
M  V30 2 1 2 3
M  V30 3 1 2 4
M  V30 4 1 5 6
M  V30 5 1 6 7
M  V30 6 2 7 8
M  V30 7 1 8 9
M  V30 8 2 9 10
M  V30 9 1 9 11
M  V30 10 1 8 12
M  V30 11 1 12 13
M  V30 12 2 13 14
M  V30 13 1 13 15
M  V30 14 1 15 16 CFG=1
M  V30 15 1 15 17
M  V30 16 1 17 18
M  V30 17 1 18 19 CFG=3
M  V30 18 1 18 7
M  V30 19 1 17 12 CFG=3
M  V30 END BOND
M  V30 BEGIN COLLECTION
M  V30 MDLV30/STEABS ATOMS=(0)
M  V30 END COLLECTION
M  V30 END CTAB
M  END
$$$$

     RDKit          2D

  0  0  0  0  0  0  0  0  0  0999 V3000
M  V30 BEGIN CTAB
M  V30 COUNTS 8 6 0 0 0
M  V30 BEGIN ATOM
M  V30 1 R 0.000000 0.000000 0.000000 0 MASS=5 VAL=1
M  V30 2 N 1.299038 0.750000 0.000000 0
M  V30 3 C 2.598076 -0.000000 0.000000 0
M  V30 4 C 1.299038 2.250000 0.000000 0
M  V30 5 R 0.000000 3.250000 0.000000 0 MASS=5 VAL=1
M  V30 6 N 1.299038 4.000000 0.000000 0
M  V30 7 C 2.598076 3.250000 0.000000 0
M  V30 8 C 1.299038 5.500000 0.000000 0
M  V30 END ATOM
M  V30 BEGIN BOND
M  V30 1 1 1 2
M  V30 2 1 2 3
M  V30 3 1 2 4
M  V30 4 1 5 6
M  V30 5 1 6 7
M  V30 6 1 6 8
M  V30 END BOND
M  V30 BEGIN COLLECTION
M  V30 MDLV30/STEABS ATOMS=(0)
M  V30 END COLLECTION
M  V30 END CTAB
M  END
$$$$

     RDKit          2D

  0  0  0  0  0  0  0  0  0  0999 V3000
M  V30 BEGIN CTAB
M  V30 COUNTS 10 8 0 0 0
M  V30 BEGIN ATOM
M  V30 1 R 0.000000 2.299038 0.000000 0 MASS=5 VAL=1
M  V30 2 N 1.299038 3.049038 0.000000 0
M  V30 3 C 2.598076 2.299038 0.000000 0
M  V30 4 C 1.299038 4.549038 0.000000 0
M  V30 5 R -3.000000 -2.598076 0.000000 0 MASS=4 VAL=1
M  V30 6 C -2.250000 -1.299038 0.000000 0
M  V30 7 C -0.750000 -1.299038 0.000000 0
M  V30 8 N 0.000000 0.000000 0.000000 0
M  V30 9 C 1.500000 0.000000 0.000000 0
M  V30 10 N 2.250000 1.299038 0.000000 0
M  V30 END ATOM
M  V30 BEGIN BOND
M  V30 1 1 1 2
M  V30 2 1 2 3
M  V30 3 1 2 4
M  V30 4 1 5 6
M  V30 5 1 6 7
M  V30 6 1 7 8
M  V30 7 2 8 9
M  V30 8 1 9 10
M  V30 END BOND
M  V30 BEGIN COLLECTION
M  V30 MDLV30/STEABS ATOMS=(0)
M  V30 END COLLECTION
M  V30 END CTAB
M  END
$$$$

     RDKit          2D

  0  0  0  0  0  0  0  0  0  0999 V3000
M  V30 BEGIN CTAB
M  V30 COUNTS 18 18 0 0 0
M  V30 BEGIN ATOM
M  V30 1 R 0.000000 4.754828 0.000000 0 MASS=5 VAL=1
M  V30 2 N 1.299038 5.504828 0.000000 0
M  V30 3 C 2.598076 4.754828 0.000000 0
M  V30 4 C 1.299038 7.004828 0.000000 0
M  V30 5 R 3.525976 -1.299038 0.000000 0 MASS=11 VAL=1
M  V30 6 S 2.775976 0.000000 0.000000 0
M  V30 7 C 1.275976 0.000000 0.000000 0
M  V30 8 C 0.394298 1.213525 0.000000 0
M  V30 9 C 0.857824 2.640110 0.000000 0
M  V30 10 O -0.145872 3.754828 0.000000 0
M  V30 11 O 2.325045 2.951978 0.000000 0
M  V30 12 N -1.032286 0.750000 0.000000 0
M  V30 13 C -2.532286 0.750000 0.000000 0
M  V30 14 O -3.592947 1.810660 0.000000 0
M  V30 15 C -2.532286 -0.750000 0.000000 0
M  V30 16 R -3.592947 -1.810660 0.000000 0 MASS=15 VAL=1
M  V30 17 C -1.032286 -0.750000 0.000000 0
M  V30 18 C 0.394298 -1.213525 0.000000 0
M  V30 END ATOM
M  V30 BEGIN BOND
M  V30 1 1 1 2
M  V30 2 1 2 3
M  V30 3 1 2 4
M  V30 4 1 5 6
M  V30 5 1 6 7
M  V30 6 2 7 8
M  V30 7 1 8 9
M  V30 8 2 9 10
M  V30 9 1 9 11
M  V30 10 1 8 12
M  V30 11 1 12 13
M  V30 12 2 13 14
M  V30 13 1 13 15
M  V30 14 1 15 16 CFG=1
M  V30 15 1 15 17
M  V30 16 1 17 18 CFG=3
M  V30 17 1 18 7
M  V30 18 1 17 12
M  V30 END BOND
M  V30 BEGIN COLLECTION
M  V30 MDLV30/STEABS ATOMS=(0)
M  V30 END COLLECTION
M  V30 END CTAB
M  END
$$$$

     RDKit          2D

  0  0  0  0  0  0  0  0  0  0999 V3000
M  V30 BEGIN CTAB
M  V30 COUNTS 19 19 0 0 0
M  V30 BEGIN ATOM
M  V30 1 R 0.000000 4.794517 0.000000 0 MASS=5 VAL=1
M  V30 2 N 1.299038 5.544517 0.000000 0
M  V30 3 C 2.598076 4.794517 0.000000 0
M  V30 4 C 1.299038 7.044517 0.000000 0
M  V30 5 R 3.000000 0.000000 0.000000 0 MASS=13 VAL=1
M  V30 6 C 1.500000 0.000000 0.000000 0
M  V30 7 C 0.750000 -1.299038 0.000000 0
M  V30 8 C -0.750000 -1.299038 0.000000 0
M  V30 9 C -1.500000 0.000000 0.000000 0
M  V30 10 C -0.750000 1.299038 0.000000 0
M  V30 11 N 0.750000 1.299038 0.000000 0
M  V30 12 C -0.364717 2.302734 0.000000 0
M  V30 13 O -0.207925 3.794517 0.000000 0
M  V30 14 N -1.663755 1.552734 0.000000 0
M  V30 15 O -3.034074 2.162839 0.000000 0
M  V30 16 S -4.247599 1.281161 0.000000 0
M  V30 17 O -5.129277 2.494687 0.000000 0
M  V30 18 O -3.365921 0.067636 0.000000 0
M  V30 19 O -5.461125 0.399483 0.000000 0
M  V30 END ATOM
M  V30 BEGIN BOND
M  V30 1 1 1 2
M  V30 2 1 2 3
M  V30 3 1 2 4
M  V30 4 1 6 5 CFG=3
M  V30 5 1 6 7
M  V30 6 1 7 8
M  V30 7 1 9 8 CFG=1
M  V30 8 1 9 10
M  V30 9 1 10 11
M  V30 10 1 11 12
M  V30 11 2 12 13
M  V30 12 1 12 14
M  V30 13 1 14 15
M  V30 14 1 15 16
M  V30 15 2 16 17
M  V30 16 2 16 18
M  V30 17 1 16 19
M  V30 18 1 11 6
M  V30 19 1 14 9
M  V30 END BOND
M  V30 BEGIN COLLECTION
M  V30 MDLV30/STEABS ATOMS=(0)
M  V30 END COLLECTION
M  V30 END CTAB
M  END
$$$$

     RDKit          2D

  0  0  0  0  0  0  0  0  0  0999 V3000
M  V30 BEGIN CTAB
M  V30 COUNTS 11 10 0 0 0
M  V30 BEGIN ATOM
M  V30 1 R 0.000000 2.631678 0.000000 0 MASS=5 VAL=1
M  V30 2 N 1.299038 3.381678 0.000000 0
M  V30 3 C 2.598076 2.631678 0.000000 0
M  V30 4 C 1.299038 4.881678 0.000000 0
M  V30 5 R 2.775976 0.000000 0.000000 0 MASS=13 VAL=1
M  V30 6 C 1.275976 0.000000 0.000000 0
M  V30 7 C 0.394298 1.213525 0.000000 0
M  V30 8 C -1.032286 0.750000 0.000000 0
M  V30 9 R -2.245812 1.631678 0.000000 0 MASS=15 VAL=1
M  V30 10 C -1.032286 -0.750000 0.000000 0
M  V30 11 N 0.394298 -1.213525 0.000000 0
M  V30 END ATOM
M  V30 BEGIN BOND
M  V30 1 1 1 2
M  V30 2 1 2 3
M  V30 3 1 2 4
M  V30 4 1 6 5 CFG=1
M  V30 5 1 6 7
M  V30 6 1 7 8
M  V30 7 1 8 9 CFG=1
M  V30 8 1 8 10
M  V30 9 1 10 11
M  V30 10 1 11 6
M  V30 END BOND
M  V30 BEGIN COLLECTION
M  V30 MDLV30/STEABS ATOMS=(0)
M  V30 END COLLECTION
M  V30 END CTAB
M  END
$$$$

     RDKit          2D

  0  0  0  0  0  0  0  0  0  0999 V3000
M  V30 BEGIN CTAB
M  V30 COUNTS 8 6 0 0 0
M  V30 BEGIN ATOM
M  V30 1 R 0.000000 0.000000 0.000000 0 MASS=5 VAL=1
M  V30 2 N 1.299038 0.750000 0.000000 0
M  V30 3 C 2.598076 -0.000000 0.000000 0
M  V30 4 C 1.299038 2.250000 0.000000 0
M  V30 5 R 0.000000 3.250000 0.000000 0 MASS=8 VAL=1
M  V30 6 C 1.299038 4.000000 0.000000 0
M  V30 7 C 2.598076 3.250000 0.000000 0
M  V30 8 O 1.299038 5.500000 0.000000 0
M  V30 END ATOM
M  V30 BEGIN BOND
M  V30 1 1 1 2
M  V30 2 1 2 3
M  V30 3 1 2 4
M  V30 4 1 6 5 CFG=3
M  V30 5 1 6 7
M  V30 6 1 6 8
M  V30 END BOND
M  V30 BEGIN COLLECTION
M  V30 MDLV30/STEABS ATOMS=(0)
M  V30 END COLLECTION
M  V30 END CTAB
M  END
$$$$

     RDKit          2D

  0  0  0  0  0  0  0  0  0  0999 V3000
M  V30 BEGIN CTAB
M  V30 COUNTS 10 8 0 0 0
M  V30 BEGIN ATOM
M  V30 1 R -3.000000 -2.598076 0.000000 0 MASS=4 VAL=1
M  V30 2 C -2.250000 -1.299038 0.000000 0
M  V30 3 C -0.750000 -1.299038 0.000000 0
M  V30 4 N 0.000000 0.000000 0.000000 0
M  V30 5 C 1.500000 0.000000 0.000000 0
M  V30 6 N 2.250000 1.299038 0.000000 0
M  V30 7 R 0.000000 2.299038 0.000000 0 MASS=6 VAL=1
M  V30 8 C 1.299038 3.049038 0.000000 0
M  V30 9 N 2.598076 2.299038 0.000000 0
M  V30 10 O 1.299038 4.549038 0.000000 0
M  V30 END ATOM
M  V30 BEGIN BOND
M  V30 1 1 1 2
M  V30 2 1 2 3
M  V30 3 1 3 4
M  V30 4 2 4 5
M  V30 5 1 5 6
M  V30 6 1 7 8
M  V30 7 1 8 9
M  V30 8 2 8 10
M  V30 END BOND
M  V30 BEGIN COLLECTION
M  V30 MDLV30/STEABS ATOMS=(0)
M  V30 END COLLECTION
M  V30 END CTAB
M  END
$$$$

     RDKit          2D

  0  0  0  0  0  0  0  0  0  0999 V3000
M  V30 BEGIN CTAB
M  V30 COUNTS 10 8 0 0 0
M  V30 BEGIN ATOM
M  V30 1 R -3.000000 -2.598076 0.000000 0 MASS=4 VAL=1
M  V30 2 C -2.250000 -1.299038 0.000000 0
M  V30 3 C -0.750000 -1.299038 0.000000 0
M  V30 4 N 0.000000 0.000000 0.000000 0
M  V30 5 C 1.500000 0.000000 0.000000 0
M  V30 6 N 2.250000 1.299038 0.000000 0
M  V30 7 R 0.000000 2.299038 0.000000 0 MASS=1 VAL=1
M  V30 8 C 1.299038 3.049038 0.000000 0
M  V30 9 R 2.598076 2.299038 0.000000 0 MASS=6 VAL=1
M  V30 10 O 1.299038 4.549038 0.000000 0
M  V30 END ATOM
M  V30 BEGIN BOND
M  V30 1 1 1 2
M  V30 2 1 2 3
M  V30 3 1 3 4
M  V30 4 2 4 5
M  V30 5 1 5 6
M  V30 6 1 7 8
M  V30 7 1 8 9
M  V30 8 2 8 10
M  V30 END BOND
M  V30 BEGIN COLLECTION
M  V30 MDLV30/STEABS ATOMS=(0)
M  V30 END COLLECTION
M  V30 END CTAB
M  END
$$$$

     RDKit          2D

  0  0  0  0  0  0  0  0  0  0999 V3000
M  V30 BEGIN CTAB
M  V30 COUNTS 21 21 0 0 0
M  V30 BEGIN ATOM
M  V30 1 R 3.560660 -2.598076 0.000000 0 MASS=4 VAL=1
M  V30 2 C 4.310660 -1.299038 0.000000 0
M  V30 3 C 5.810660 -1.299038 0.000000 0
M  V30 4 N 6.560660 0.000000 0.000000 0
M  V30 5 C 8.060660 0.000000 0.000000 0
M  V30 6 N 8.810660 1.299038 0.000000 0
M  V30 7 R -4.672067 -2.834950 0.000000 0 MASS=11 VAL=1
M  V30 8 S -3.223178 -3.223178 0.000000 0
M  V30 9 C -2.162518 -2.162518 0.000000 0
M  V30 10 C -0.680986 -2.397170 0.000000 0
M  V30 11 C 0.000000 -3.733680 0.000000 0
M  V30 12 O 1.497944 -3.812184 0.000000 0
M  V30 13 O -0.816959 -4.991686 0.000000 0
M  V30 14 N -0.000000 -1.060660 0.000000 0
M  V30 15 C 1.060660 0.000000 0.000000 0
M  V30 16 O 2.560660 0.000000 0.000000 0
M  V30 17 C 0.000000 1.060660 0.000000 0
M  V30 18 R 0.000000 2.560660 0.000000 0 MASS=15 VAL=1
M  V30 19 C -1.060660 0.000000 0.000000 0
M  V30 20 C -2.397170 -0.680986 0.000000 0
M  V30 21 C -3.733680 0.000000 0.000000 0
M  V30 END ATOM
M  V30 BEGIN BOND
M  V30 1 1 1 2
M  V30 2 1 2 3
M  V30 3 1 3 4
M  V30 4 2 4 5
M  V30 5 1 5 6
M  V30 6 1 7 8
M  V30 7 1 8 9
M  V30 8 2 9 10
M  V30 9 1 10 11
M  V30 10 2 11 12
M  V30 11 1 11 13
M  V30 12 1 10 14
M  V30 13 1 14 15
M  V30 14 2 15 16
M  V30 15 1 15 17
M  V30 16 1 17 18 CFG=1
M  V30 17 1 17 19
M  V30 18 1 19 20
M  V30 19 1 20 21 CFG=3
M  V30 20 1 20 9
M  V30 21 1 19 14 CFG=3
M  V30 END BOND
M  V30 BEGIN COLLECTION
M  V30 MDLV30/STEABS ATOMS=(0)
M  V30 END COLLECTION
M  V30 END CTAB
M  END
$$$$

     RDKit          2D

  0  0  0  0  0  0  0  0  0  0999 V3000
M  V30 BEGIN CTAB
M  V30 COUNTS 10 8 0 0 0
M  V30 BEGIN ATOM
M  V30 1 R -3.000000 -2.598076 0.000000 0 MASS=4 VAL=1
M  V30 2 C -2.250000 -1.299038 0.000000 0
M  V30 3 C -0.750000 -1.299038 0.000000 0
M  V30 4 N 0.000000 0.000000 0.000000 0
M  V30 5 C 1.500000 0.000000 0.000000 0
M  V30 6 N 2.250000 1.299038 0.000000 0
M  V30 7 R 0.000000 2.299038 0.000000 0 MASS=5 VAL=1
M  V30 8 N 1.299038 3.049038 0.000000 0
M  V30 9 C 2.598076 2.299038 0.000000 0
M  V30 10 C 1.299038 4.549038 0.000000 0
M  V30 END ATOM
M  V30 BEGIN BOND
M  V30 1 1 1 2
M  V30 2 1 2 3
M  V30 3 1 3 4
M  V30 4 2 4 5
M  V30 5 1 5 6
M  V30 6 1 7 8
M  V30 7 1 8 9
M  V30 8 1 8 10
M  V30 END BOND
M  V30 BEGIN COLLECTION
M  V30 MDLV30/STEABS ATOMS=(0)
M  V30 END COLLECTION
M  V30 END CTAB
M  END
$$$$

     RDKit          2D

  0  0  0  0  0  0  0  0  0  0999 V3000
M  V30 BEGIN CTAB
M  V30 COUNTS 12 10 0 0 0
M  V30 BEGIN ATOM
M  V30 1 R -3.000000 -2.598076 0.000000 0 MASS=4 VAL=1
M  V30 2 C -2.250000 -1.299038 0.000000 0
M  V30 3 C -0.750000 -1.299038 0.000000 0
M  V30 4 N 0.000000 0.000000 0.000000 0
M  V30 5 C 1.500000 0.000000 0.000000 0
M  V30 6 N 2.250000 1.299038 0.000000 0
M  V30 7 R -3.000000 2.299038 0.000000 0 MASS=4 VAL=1
M  V30 8 C -2.250000 3.598076 0.000000 0
M  V30 9 C -0.750000 3.598076 0.000000 0
M  V30 10 N 0.000000 4.897114 0.000000 0
M  V30 11 C 1.500000 4.897114 0.000000 0
M  V30 12 N 2.250000 6.196152 0.000000 0
M  V30 END ATOM
M  V30 BEGIN BOND
M  V30 1 1 1 2
M  V30 2 1 2 3
M  V30 3 1 3 4
M  V30 4 2 4 5
M  V30 5 1 5 6
M  V30 6 1 7 8
M  V30 7 1 8 9
M  V30 8 1 9 10
M  V30 9 2 10 11
M  V30 10 1 11 12
M  V30 END BOND
M  V30 BEGIN COLLECTION
M  V30 MDLV30/STEABS ATOMS=(0)
M  V30 END COLLECTION
M  V30 END CTAB
M  END
$$$$

     RDKit          2D

  0  0  0  0  0  0  0  0  0  0999 V3000
M  V30 BEGIN CTAB
M  V30 COUNTS 20 20 0 0 0
M  V30 BEGIN ATOM
M  V30 1 R -3.000000 4.754828 0.000000 0 MASS=4 VAL=1
M  V30 2 C -2.250000 6.053866 0.000000 0
M  V30 3 C -0.750000 6.053866 0.000000 0
M  V30 4 N 0.000000 7.352904 0.000000 0
M  V30 5 C 1.500000 7.352904 0.000000 0
M  V30 6 N 2.250000 8.651942 0.000000 0
M  V30 7 R 3.525976 -1.299038 0.000000 0 MASS=11 VAL=1
M  V30 8 S 2.775976 0.000000 0.000000 0
M  V30 9 C 1.275976 0.000000 0.000000 0
M  V30 10 C 0.394298 1.213525 0.000000 0
M  V30 11 C 0.857824 2.640110 0.000000 0
M  V30 12 O -0.145872 3.754828 0.000000 0
M  V30 13 O 2.325045 2.951978 0.000000 0
M  V30 14 N -1.032286 0.750000 0.000000 0
M  V30 15 C -2.532286 0.750000 0.000000 0
M  V30 16 O -3.592947 1.810660 0.000000 0
M  V30 17 C -2.532286 -0.750000 0.000000 0
M  V30 18 R -3.592947 -1.810660 0.000000 0 MASS=15 VAL=1
M  V30 19 C -1.032286 -0.750000 0.000000 0
M  V30 20 C 0.394298 -1.213525 0.000000 0
M  V30 END ATOM
M  V30 BEGIN BOND
M  V30 1 1 1 2
M  V30 2 1 2 3
M  V30 3 1 3 4
M  V30 4 2 4 5
M  V30 5 1 5 6
M  V30 6 1 7 8
M  V30 7 1 8 9
M  V30 8 2 9 10
M  V30 9 1 10 11
M  V30 10 2 11 12
M  V30 11 1 11 13
M  V30 12 1 10 14
M  V30 13 1 14 15
M  V30 14 2 15 16
M  V30 15 1 15 17
M  V30 16 1 17 18 CFG=1
M  V30 17 1 17 19
M  V30 18 1 19 20 CFG=3
M  V30 19 1 20 9
M  V30 20 1 19 14
M  V30 END BOND
M  V30 BEGIN COLLECTION
M  V30 MDLV30/STEABS ATOMS=(0)
M  V30 END COLLECTION
M  V30 END CTAB
M  END
$$$$

     RDKit          2D

  0  0  0  0  0  0  0  0  0  0999 V3000
M  V30 BEGIN CTAB
M  V30 COUNTS 21 21 0 0 0
M  V30 BEGIN ATOM
M  V30 1 R -3.000000 4.794517 0.000000 0 MASS=4 VAL=1
M  V30 2 C -2.250000 6.093555 0.000000 0
M  V30 3 C -0.750000 6.093555 0.000000 0
M  V30 4 N 0.000000 7.392593 0.000000 0
M  V30 5 C 1.500000 7.392593 0.000000 0
M  V30 6 N 2.250000 8.691631 0.000000 0
M  V30 7 R 3.000000 0.000000 0.000000 0 MASS=13 VAL=1
M  V30 8 C 1.500000 0.000000 0.000000 0
M  V30 9 C 0.750000 -1.299038 0.000000 0
M  V30 10 C -0.750000 -1.299038 0.000000 0
M  V30 11 C -1.500000 0.000000 0.000000 0
M  V30 12 C -0.750000 1.299038 0.000000 0
M  V30 13 N 0.750000 1.299038 0.000000 0
M  V30 14 C -0.364717 2.302734 0.000000 0
M  V30 15 O -0.207925 3.794517 0.000000 0
M  V30 16 N -1.663755 1.552734 0.000000 0
M  V30 17 O -3.034074 2.162839 0.000000 0
M  V30 18 S -4.247599 1.281161 0.000000 0
M  V30 19 O -3.365921 0.067636 0.000000 0
M  V30 20 O -5.129277 2.494687 0.000000 0
M  V30 21 O -5.461125 0.399483 0.000000 0
M  V30 END ATOM
M  V30 BEGIN BOND
M  V30 1 1 1 2
M  V30 2 1 2 3
M  V30 3 1 3 4
M  V30 4 2 4 5
M  V30 5 1 5 6
M  V30 6 1 8 7 CFG=3
M  V30 7 1 8 9
M  V30 8 1 9 10
M  V30 9 1 11 10 CFG=1
M  V30 10 1 11 12
M  V30 11 1 12 13
M  V30 12 1 13 14
M  V30 13 2 14 15
M  V30 14 1 14 16
M  V30 15 1 16 17
M  V30 16 1 17 18
M  V30 17 2 18 19
M  V30 18 2 18 20
M  V30 19 1 18 21
M  V30 20 1 13 8
M  V30 21 1 16 11
M  V30 END BOND
M  V30 BEGIN COLLECTION
M  V30 MDLV30/STEABS ATOMS=(0)
M  V30 END COLLECTION
M  V30 END CTAB
M  END
$$$$

     RDKit          2D

  0  0  0  0  0  0  0  0  0  0999 V3000
M  V30 BEGIN CTAB
M  V30 COUNTS 13 12 0 0 0
M  V30 BEGIN ATOM
M  V30 1 R -3.000000 2.631678 0.000000 0 MASS=4 VAL=1
M  V30 2 C -2.250000 3.930716 0.000000 0
M  V30 3 C -0.750000 3.930716 0.000000 0
M  V30 4 N 0.000000 5.229754 0.000000 0
M  V30 5 C 1.500000 5.229754 0.000000 0
M  V30 6 N 2.250000 6.528792 0.000000 0
M  V30 7 R 2.775976 0.000000 0.000000 0 MASS=13 VAL=1
M  V30 8 C 1.275976 0.000000 0.000000 0
M  V30 9 C 0.394298 1.213525 0.000000 0
M  V30 10 C -1.032286 0.750000 0.000000 0
M  V30 11 R -2.245812 1.631678 0.000000 0 MASS=15 VAL=1
M  V30 12 C -1.032286 -0.750000 0.000000 0
M  V30 13 N 0.394298 -1.213525 0.000000 0
M  V30 END ATOM
M  V30 BEGIN BOND
M  V30 1 1 1 2
M  V30 2 1 2 3
M  V30 3 1 3 4
M  V30 4 2 4 5
M  V30 5 1 5 6
M  V30 6 1 8 7 CFG=1
M  V30 7 1 8 9
M  V30 8 1 9 10
M  V30 9 1 10 11 CFG=1
M  V30 10 1 10 12
M  V30 11 1 12 13
M  V30 12 1 13 8
M  V30 END BOND
M  V30 BEGIN COLLECTION
M  V30 MDLV30/STEABS ATOMS=(0)
M  V30 END COLLECTION
M  V30 END CTAB
M  END
$$$$

     RDKit          2D

  0  0  0  0  0  0  0  0  0  0999 V3000
M  V30 BEGIN CTAB
M  V30 COUNTS 10 8 0 0 0
M  V30 BEGIN ATOM
M  V30 1 R -3.000000 -2.598076 0.000000 0 MASS=4 VAL=1
M  V30 2 C -2.250000 -1.299038 0.000000 0
M  V30 3 C -0.750000 -1.299038 0.000000 0
M  V30 4 N 0.000000 0.000000 0.000000 0
M  V30 5 C 1.500000 0.000000 0.000000 0
M  V30 6 N 2.250000 1.299038 0.000000 0
M  V30 7 R 0.000000 2.299038 0.000000 0 MASS=8 VAL=1
M  V30 8 C 1.299038 3.049038 0.000000 0
M  V30 9 C 2.598076 2.299038 0.000000 0
M  V30 10 O 1.299038 4.549038 0.000000 0
M  V30 END ATOM
M  V30 BEGIN BOND
M  V30 1 1 1 2
M  V30 2 1 2 3
M  V30 3 1 3 4
M  V30 4 2 4 5
M  V30 5 1 5 6
M  V30 6 1 8 7 CFG=3
M  V30 7 1 8 9
M  V30 8 1 8 10
M  V30 END BOND
M  V30 BEGIN COLLECTION
M  V30 MDLV30/STEABS ATOMS=(0)
M  V30 END COLLECTION
M  V30 END CTAB
M  END
$$$$

     RDKit          2D

  0  0  0  0  0  0  0  0  0  0999 V3000
M  V30 BEGIN CTAB
M  V30 COUNTS 18 18 0 0 0
M  V30 BEGIN ATOM
M  V30 1 R 3.525976 -1.299038 0.000000 0 MASS=11 VAL=1
M  V30 2 S 2.775976 0.000000 0.000000 0
M  V30 3 C 1.275976 0.000000 0.000000 0
M  V30 4 C 0.394298 1.213525 0.000000 0
M  V30 5 C 0.857824 2.640110 0.000000 0
M  V30 6 O -0.145872 3.754828 0.000000 0
M  V30 7 O 2.325045 2.951978 0.000000 0
M  V30 8 N -1.032286 0.750000 0.000000 0
M  V30 9 C -2.532286 0.750000 0.000000 0
M  V30 10 O -3.592947 1.810660 0.000000 0
M  V30 11 C -2.532286 -0.750000 0.000000 0
M  V30 12 R -3.592947 -1.810660 0.000000 0 MASS=15 VAL=1
M  V30 13 C -1.032286 -0.750000 0.000000 0
M  V30 14 C 0.394298 -1.213525 0.000000 0
M  V30 15 R 0.000000 4.754828 0.000000 0 MASS=6 VAL=1
M  V30 16 C 1.299038 5.504828 0.000000 0
M  V30 17 N 2.598076 4.754828 0.000000 0
M  V30 18 O 1.299038 7.004828 0.000000 0
M  V30 END ATOM
M  V30 BEGIN BOND
M  V30 1 1 1 2
M  V30 2 1 2 3
M  V30 3 2 3 4
M  V30 4 1 4 5
M  V30 5 2 5 6
M  V30 6 1 5 7
M  V30 7 1 4 8
M  V30 8 1 8 9
M  V30 9 2 9 10
M  V30 10 1 9 11
M  V30 11 1 11 12 CFG=1
M  V30 12 1 11 13
M  V30 13 1 13 14 CFG=3
M  V30 14 1 14 3
M  V30 15 1 13 8
M  V30 16 1 15 16
M  V30 17 1 16 17
M  V30 18 2 16 18
M  V30 END BOND
M  V30 BEGIN COLLECTION
M  V30 MDLV30/STEABS ATOMS=(0)
M  V30 END COLLECTION
M  V30 END CTAB
M  END
$$$$

     RDKit          2D

  0  0  0  0  0  0  0  0  0  0999 V3000
M  V30 BEGIN CTAB
M  V30 COUNTS 18 18 0 0 0
M  V30 BEGIN ATOM
M  V30 1 R 3.525976 -1.299038 0.000000 0 MASS=11 VAL=1
M  V30 2 S 2.775976 0.000000 0.000000 0
M  V30 3 C 1.275976 0.000000 0.000000 0
M  V30 4 C 0.394298 1.213525 0.000000 0
M  V30 5 C 0.857824 2.640110 0.000000 0
M  V30 6 O -0.145872 3.754828 0.000000 0
M  V30 7 O 2.325045 2.951978 0.000000 0
M  V30 8 N -1.032286 0.750000 0.000000 0
M  V30 9 C -2.532286 0.750000 0.000000 0
M  V30 10 O -3.592947 1.810660 0.000000 0
M  V30 11 C -2.532286 -0.750000 0.000000 0
M  V30 12 R -3.592947 -1.810660 0.000000 0 MASS=15 VAL=1
M  V30 13 C -1.032286 -0.750000 0.000000 0
M  V30 14 C 0.394298 -1.213525 0.000000 0
M  V30 15 R 0.000000 4.754828 0.000000 0 MASS=1 VAL=1
M  V30 16 C 1.299038 5.504828 0.000000 0
M  V30 17 R 2.598076 4.754828 0.000000 0 MASS=6 VAL=1
M  V30 18 O 1.299038 7.004828 0.000000 0
M  V30 END ATOM
M  V30 BEGIN BOND
M  V30 1 1 1 2
M  V30 2 1 2 3
M  V30 3 2 3 4
M  V30 4 1 4 5
M  V30 5 2 5 6
M  V30 6 1 5 7
M  V30 7 1 4 8
M  V30 8 1 8 9
M  V30 9 2 9 10
M  V30 10 1 9 11
M  V30 11 1 11 12 CFG=1
M  V30 12 1 11 13
M  V30 13 1 13 14 CFG=3
M  V30 14 1 14 3
M  V30 15 1 13 8
M  V30 16 1 15 16
M  V30 17 1 16 17
M  V30 18 2 16 18
M  V30 END BOND
M  V30 BEGIN COLLECTION
M  V30 MDLV30/STEABS ATOMS=(0)
M  V30 END COLLECTION
M  V30 END CTAB
M  END
$$$$

     RDKit          2D

  0  0  0  0  0  0  0  0  0  0999 V3000
M  V30 BEGIN CTAB
M  V30 COUNTS 29 31 0 0 0
M  V30 BEGIN ATOM
M  V30 1 R 3.525976 -1.299038 0.000000 0 MASS=11 VAL=1
M  V30 2 S 2.775976 0.000000 0.000000 0
M  V30 3 C 1.275976 0.000000 0.000000 0
M  V30 4 C 0.394298 1.213525 0.000000 0
M  V30 5 C 0.857824 2.640110 0.000000 0
M  V30 6 O -0.145872 3.754828 0.000000 0
M  V30 7 O 2.325045 2.951978 0.000000 0
M  V30 8 N -1.032286 0.750000 0.000000 0
M  V30 9 C -2.532286 0.750000 0.000000 0
M  V30 10 O -3.592947 1.810660 0.000000 0
M  V30 11 C -2.532286 -0.750000 0.000000 0
M  V30 12 R -3.592947 -1.810660 0.000000 0 MASS=15 VAL=1
M  V30 13 C -1.032286 -0.750000 0.000000 0
M  V30 14 C 0.394298 -1.213525 0.000000 0
M  V30 15 R -4.672067 6.911563 0.000000 0 MASS=11 VAL=1
M  V30 16 S -3.223178 6.523335 0.000000 0
M  V30 17 C -2.162518 7.583995 0.000000 0
M  V30 18 C -0.680986 7.349343 0.000000 0
M  V30 19 C 0.000000 6.012833 0.000000 0
M  V30 20 O 1.497944 5.934329 0.000000 0
M  V30 21 O -0.816959 4.754828 0.000000 0
M  V30 22 N -0.000000 8.685853 0.000000 0
M  V30 23 C 1.060660 9.746513 0.000000 0
M  V30 24 O 2.560660 9.746513 0.000000 0
M  V30 25 C 0.000000 10.807173 0.000000 0
M  V30 26 R 0.000000 12.307173 0.000000 0 MASS=15 VAL=1
M  V30 27 C -1.060660 9.746513 0.000000 0
M  V30 28 C -2.397170 9.065527 0.000000 0
M  V30 29 C -3.733680 9.746513 0.000000 0
M  V30 END ATOM
M  V30 BEGIN BOND
M  V30 1 1 1 2
M  V30 2 1 2 3
M  V30 3 2 3 4
M  V30 4 1 4 5
M  V30 5 2 5 6
M  V30 6 1 5 7
M  V30 7 1 4 8
M  V30 8 1 8 9
M  V30 9 2 9 10
M  V30 10 1 9 11
M  V30 11 1 11 12 CFG=1
M  V30 12 1 11 13
M  V30 13 1 13 14 CFG=3
M  V30 14 1 14 3
M  V30 15 1 13 8
M  V30 16 1 15 16
M  V30 17 1 16 17
M  V30 18 2 17 18
M  V30 19 1 18 19
M  V30 20 2 19 20
M  V30 21 1 19 21
M  V30 22 1 18 22
M  V30 23 1 22 23
M  V30 24 2 23 24
M  V30 25 1 23 25
M  V30 26 1 25 26 CFG=1
M  V30 27 1 25 27
M  V30 28 1 27 28
M  V30 29 1 28 29 CFG=3
M  V30 30 1 28 17
M  V30 31 1 27 22 CFG=3
M  V30 END BOND
M  V30 BEGIN COLLECTION
M  V30 MDLV30/STEABS ATOMS=(0)
M  V30 END COLLECTION
M  V30 END CTAB
M  END
$$$$

     RDKit          2D

  0  0  0  0  0  0  0  0  0  0999 V3000
M  V30 BEGIN CTAB
M  V30 COUNTS 18 18 0 0 0
M  V30 BEGIN ATOM
M  V30 1 R 3.525976 -1.299038 0.000000 0 MASS=11 VAL=1
M  V30 2 S 2.775976 0.000000 0.000000 0
M  V30 3 C 1.275976 0.000000 0.000000 0
M  V30 4 C 0.394298 1.213525 0.000000 0
M  V30 5 C 0.857824 2.640110 0.000000 0
M  V30 6 O -0.145872 3.754828 0.000000 0
M  V30 7 O 2.325045 2.951978 0.000000 0
M  V30 8 N -1.032286 0.750000 0.000000 0
M  V30 9 C -2.532286 0.750000 0.000000 0
M  V30 10 O -3.592947 1.810660 0.000000 0
M  V30 11 C -2.532286 -0.750000 0.000000 0
M  V30 12 R -3.592947 -1.810660 0.000000 0 MASS=15 VAL=1
M  V30 13 C -1.032286 -0.750000 0.000000 0
M  V30 14 C 0.394298 -1.213525 0.000000 0
M  V30 15 R 0.000000 4.754828 0.000000 0 MASS=5 VAL=1
M  V30 16 N 1.299038 5.504828 0.000000 0
M  V30 17 C 2.598076 4.754828 0.000000 0
M  V30 18 C 1.299038 7.004828 0.000000 0
M  V30 END ATOM
M  V30 BEGIN BOND
M  V30 1 1 1 2
M  V30 2 1 2 3
M  V30 3 2 3 4
M  V30 4 1 4 5
M  V30 5 2 5 6
M  V30 6 1 5 7
M  V30 7 1 4 8
M  V30 8 1 8 9
M  V30 9 2 9 10
M  V30 10 1 9 11
M  V30 11 1 11 12 CFG=1
M  V30 12 1 11 13
M  V30 13 1 13 14 CFG=3
M  V30 14 1 14 3
M  V30 15 1 13 8
M  V30 16 1 15 16
M  V30 17 1 16 17
M  V30 18 1 16 18
M  V30 END BOND
M  V30 BEGIN COLLECTION
M  V30 MDLV30/STEABS ATOMS=(0)
M  V30 END COLLECTION
M  V30 END CTAB
M  END
$$$$

     RDKit          2D

  0  0  0  0  0  0  0  0  0  0999 V3000
M  V30 BEGIN CTAB
M  V30 COUNTS 20 20 0 0 0
M  V30 BEGIN ATOM
M  V30 1 R 3.525976 -1.299038 0.000000 0 MASS=11 VAL=1
M  V30 2 S 2.775976 0.000000 0.000000 0
M  V30 3 C 1.275976 0.000000 0.000000 0
M  V30 4 C 0.394298 1.213525 0.000000 0
M  V30 5 C 0.857824 2.640110 0.000000 0
M  V30 6 O -0.145872 3.754828 0.000000 0
M  V30 7 O 2.325045 2.951978 0.000000 0
M  V30 8 N -1.032286 0.750000 0.000000 0
M  V30 9 C -2.532286 0.750000 0.000000 0
M  V30 10 O -3.592947 1.810660 0.000000 0
M  V30 11 C -2.532286 -0.750000 0.000000 0
M  V30 12 R -3.592947 -1.810660 0.000000 0 MASS=15 VAL=1
M  V30 13 C -1.032286 -0.750000 0.000000 0
M  V30 14 C 0.394298 -1.213525 0.000000 0
M  V30 15 R -3.000000 4.754828 0.000000 0 MASS=4 VAL=1
M  V30 16 C -2.250000 6.053866 0.000000 0
M  V30 17 C -0.750000 6.053866 0.000000 0
M  V30 18 N 0.000000 7.352904 0.000000 0
M  V30 19 C 1.500000 7.352904 0.000000 0
M  V30 20 N 2.250000 8.651942 0.000000 0
M  V30 END ATOM
M  V30 BEGIN BOND
M  V30 1 1 1 2
M  V30 2 1 2 3
M  V30 3 2 3 4
M  V30 4 1 4 5
M  V30 5 2 5 6
M  V30 6 1 5 7
M  V30 7 1 4 8
M  V30 8 1 8 9
M  V30 9 2 9 10
M  V30 10 1 9 11
M  V30 11 1 11 12 CFG=1
M  V30 12 1 11 13
M  V30 13 1 13 14 CFG=3
M  V30 14 1 14 3
M  V30 15 1 13 8
M  V30 16 1 15 16
M  V30 17 1 16 17
M  V30 18 1 17 18
M  V30 19 2 18 19
M  V30 20 1 19 20
M  V30 END BOND
M  V30 BEGIN COLLECTION
M  V30 MDLV30/STEABS ATOMS=(0)
M  V30 END COLLECTION
M  V30 END CTAB
M  END
$$$$

     RDKit          2D

  0  0  0  0  0  0  0  0  0  0999 V3000
M  V30 BEGIN CTAB
M  V30 COUNTS 28 30 0 0 0
M  V30 BEGIN ATOM
M  V30 1 R 3.525976 -1.299038 0.000000 0 MASS=11 VAL=1
M  V30 2 S 2.775976 0.000000 0.000000 0
M  V30 3 C 1.275976 0.000000 0.000000 0
M  V30 4 C 0.394298 1.213525 0.000000 0
M  V30 5 C 0.857824 2.640110 0.000000 0
M  V30 6 O -0.145872 3.754828 0.000000 0
M  V30 7 O 2.325045 2.951978 0.000000 0
M  V30 8 N -1.032286 0.750000 0.000000 0
M  V30 9 C -2.532286 0.750000 0.000000 0
M  V30 10 O -3.592947 1.810660 0.000000 0
M  V30 11 C -2.532286 -0.750000 0.000000 0
M  V30 12 R -3.592947 -1.810660 0.000000 0 MASS=15 VAL=1
M  V30 13 C -1.032286 -0.750000 0.000000 0
M  V30 14 C 0.394298 -1.213525 0.000000 0
M  V30 15 R 3.525976 5.266450 0.000000 0 MASS=11 VAL=1
M  V30 16 S 2.775976 6.565488 0.000000 0
M  V30 17 C 1.275976 6.565488 0.000000 0
M  V30 18 C 0.394298 7.779013 0.000000 0
M  V30 19 C 0.857824 9.205598 0.000000 0
M  V30 20 O -0.145872 10.320315 0.000000 0
M  V30 21 O 2.325045 9.517465 0.000000 0
M  V30 22 N -1.032286 7.315488 0.000000 0
M  V30 23 C -2.532286 7.315488 0.000000 0
M  V30 24 O -3.592947 8.376148 0.000000 0
M  V30 25 C -2.532286 5.815488 0.000000 0
M  V30 26 R -3.592947 4.754828 0.000000 0 MASS=15 VAL=1
M  V30 27 C -1.032286 5.815488 0.000000 0
M  V30 28 C 0.394298 5.351962 0.000000 0
M  V30 END ATOM
M  V30 BEGIN BOND
M  V30 1 1 1 2
M  V30 2 1 2 3
M  V30 3 2 3 4
M  V30 4 1 4 5
M  V30 5 2 5 6
M  V30 6 1 5 7
M  V30 7 1 4 8
M  V30 8 1 8 9
M  V30 9 2 9 10
M  V30 10 1 9 11
M  V30 11 1 11 12 CFG=1
M  V30 12 1 11 13
M  V30 13 1 13 14 CFG=3
M  V30 14 1 14 3
M  V30 15 1 13 8
M  V30 16 1 15 16
M  V30 17 1 16 17
M  V30 18 2 17 18
M  V30 19 1 18 19
M  V30 20 2 19 20
M  V30 21 1 19 21
M  V30 22 1 18 22
M  V30 23 1 22 23
M  V30 24 2 23 24
M  V30 25 1 23 25
M  V30 26 1 25 26 CFG=1
M  V30 27 1 25 27
M  V30 28 1 27 28 CFG=3
M  V30 29 1 28 17
M  V30 30 1 27 22
M  V30 END BOND
M  V30 BEGIN COLLECTION
M  V30 MDLV30/STEABS ATOMS=(0)
M  V30 END COLLECTION
M  V30 END CTAB
M  END
$$$$

     RDKit          2D

  0  0  0  0  0  0  0  0  0  0999 V3000
M  V30 BEGIN CTAB
M  V30 COUNTS 29 31 0 0 0
M  V30 BEGIN ATOM
M  V30 1 R 3.525976 -1.299038 0.000000 0 MASS=11 VAL=1
M  V30 2 S 2.775976 0.000000 0.000000 0
M  V30 3 C 1.275976 0.000000 0.000000 0
M  V30 4 C 0.394298 1.213525 0.000000 0
M  V30 5 C 0.857824 2.640110 0.000000 0
M  V30 6 O -0.145872 3.754828 0.000000 0
M  V30 7 O 2.325045 2.951978 0.000000 0
M  V30 8 N -1.032286 0.750000 0.000000 0
M  V30 9 C -2.532286 0.750000 0.000000 0
M  V30 10 O -3.592947 1.810660 0.000000 0
M  V30 11 C -2.532286 -0.750000 0.000000 0
M  V30 12 R -3.592947 -1.810660 0.000000 0 MASS=15 VAL=1
M  V30 13 C -1.032286 -0.750000 0.000000 0
M  V30 14 C 0.394298 -1.213525 0.000000 0
M  V30 15 R 3.000000 6.053866 0.000000 0 MASS=13 VAL=1
M  V30 16 C 1.500000 6.053866 0.000000 0
M  V30 17 C 0.750000 4.754828 0.000000 0
M  V30 18 C -0.750000 4.754828 0.000000 0
M  V30 19 C -1.500000 6.053866 0.000000 0
M  V30 20 C -0.750000 7.352904 0.000000 0
M  V30 21 N 0.750000 7.352904 0.000000 0
M  V30 22 C -0.364717 8.356600 0.000000 0
M  V30 23 O -0.207925 9.848382 0.000000 0
M  V30 24 N -1.663755 7.606600 0.000000 0
M  V30 25 O -3.034074 8.216705 0.000000 0
M  V30 26 S -4.247599 7.335027 0.000000 0
M  V30 27 O -5.129277 8.548552 0.000000 0
M  V30 28 O -3.365921 6.121501 0.000000 0
M  V30 29 O -5.461125 6.453349 0.000000 0
M  V30 END ATOM
M  V30 BEGIN BOND
M  V30 1 1 1 2
M  V30 2 1 2 3
M  V30 3 2 3 4
M  V30 4 1 4 5
M  V30 5 2 5 6
M  V30 6 1 5 7
M  V30 7 1 4 8
M  V30 8 1 8 9
M  V30 9 2 9 10
M  V30 10 1 9 11
M  V30 11 1 11 12 CFG=1
M  V30 12 1 11 13
M  V30 13 1 13 14 CFG=3
M  V30 14 1 14 3
M  V30 15 1 13 8
M  V30 16 1 16 15 CFG=3
M  V30 17 1 16 17
M  V30 18 1 17 18
M  V30 19 1 19 18 CFG=1
M  V30 20 1 19 20
M  V30 21 1 20 21
M  V30 22 1 21 22
M  V30 23 2 22 23
M  V30 24 1 22 24
M  V30 25 1 24 25
M  V30 26 1 25 26
M  V30 27 2 26 27
M  V30 28 2 26 28
M  V30 29 1 26 29
M  V30 30 1 21 16
M  V30 31 1 24 19
M  V30 END BOND
M  V30 BEGIN COLLECTION
M  V30 MDLV30/STEABS ATOMS=(0)
M  V30 END COLLECTION
M  V30 END CTAB
M  END
$$$$

     RDKit          2D

  0  0  0  0  0  0  0  0  0  0999 V3000
M  V30 BEGIN CTAB
M  V30 COUNTS 21 22 0 0 0
M  V30 BEGIN ATOM
M  V30 1 R 3.525976 -1.299038 0.000000 0 MASS=11 VAL=1
M  V30 2 S 2.775976 0.000000 0.000000 0
M  V30 3 C 1.275976 0.000000 0.000000 0
M  V30 4 C 0.394298 1.213525 0.000000 0
M  V30 5 C 0.857824 2.640110 0.000000 0
M  V30 6 O -0.145872 3.754828 0.000000 0
M  V30 7 O 2.325045 2.951978 0.000000 0
M  V30 8 N -1.032286 0.750000 0.000000 0
M  V30 9 C -2.532286 0.750000 0.000000 0
M  V30 10 O -3.592947 1.810660 0.000000 0
M  V30 11 C -2.532286 -0.750000 0.000000 0
M  V30 12 R -3.592947 -1.810660 0.000000 0 MASS=15 VAL=1
M  V30 13 C -1.032286 -0.750000 0.000000 0
M  V30 14 C 0.394298 -1.213525 0.000000 0
M  V30 15 R 2.775976 5.968353 0.000000 0 MASS=13 VAL=1
M  V30 16 C 1.275976 5.968353 0.000000 0
M  V30 17 C 0.394298 7.181878 0.000000 0
M  V30 18 C -1.032286 6.718353 0.000000 0
M  V30 19 R -2.245812 7.600031 0.000000 0 MASS=15 VAL=1
M  V30 20 C -1.032286 5.218353 0.000000 0
M  V30 21 N 0.394298 4.754828 0.000000 0
M  V30 END ATOM
M  V30 BEGIN BOND
M  V30 1 1 1 2
M  V30 2 1 2 3
M  V30 3 2 3 4
M  V30 4 1 4 5
M  V30 5 2 5 6
M  V30 6 1 5 7
M  V30 7 1 4 8
M  V30 8 1 8 9
M  V30 9 2 9 10
M  V30 10 1 9 11
M  V30 11 1 11 12 CFG=1
M  V30 12 1 11 13
M  V30 13 1 13 14 CFG=3
M  V30 14 1 14 3
M  V30 15 1 13 8
M  V30 16 1 16 15 CFG=1
M  V30 17 1 16 17
M  V30 18 1 17 18
M  V30 19 1 18 19 CFG=1
M  V30 20 1 18 20
M  V30 21 1 20 21
M  V30 22 1 21 16
M  V30 END BOND
M  V30 BEGIN COLLECTION
M  V30 MDLV30/STEABS ATOMS=(0)
M  V30 END COLLECTION
M  V30 END CTAB
M  END
$$$$

     RDKit          2D

  0  0  0  0  0  0  0  0  0  0999 V3000
M  V30 BEGIN CTAB
M  V30 COUNTS 18 18 0 0 0
M  V30 BEGIN ATOM
M  V30 1 R 3.525976 -1.299038 0.000000 0 MASS=11 VAL=1
M  V30 2 S 2.775976 0.000000 0.000000 0
M  V30 3 C 1.275976 0.000000 0.000000 0
M  V30 4 C 0.394298 1.213525 0.000000 0
M  V30 5 C 0.857824 2.640110 0.000000 0
M  V30 6 O -0.145872 3.754828 0.000000 0
M  V30 7 O 2.325045 2.951978 0.000000 0
M  V30 8 N -1.032286 0.750000 0.000000 0
M  V30 9 C -2.532286 0.750000 0.000000 0
M  V30 10 O -3.592947 1.810660 0.000000 0
M  V30 11 C -2.532286 -0.750000 0.000000 0
M  V30 12 R -3.592947 -1.810660 0.000000 0 MASS=15 VAL=1
M  V30 13 C -1.032286 -0.750000 0.000000 0
M  V30 14 C 0.394298 -1.213525 0.000000 0
M  V30 15 R 0.000000 4.754828 0.000000 0 MASS=8 VAL=1
M  V30 16 C 1.299038 5.504828 0.000000 0
M  V30 17 C 2.598076 4.754828 0.000000 0
M  V30 18 O 1.299038 7.004828 0.000000 0
M  V30 END ATOM
M  V30 BEGIN BOND
M  V30 1 1 1 2
M  V30 2 1 2 3
M  V30 3 2 3 4
M  V30 4 1 4 5
M  V30 5 2 5 6
M  V30 6 1 5 7
M  V30 7 1 4 8
M  V30 8 1 8 9
M  V30 9 2 9 10
M  V30 10 1 9 11
M  V30 11 1 11 12 CFG=1
M  V30 12 1 11 13
M  V30 13 1 13 14 CFG=3
M  V30 14 1 14 3
M  V30 15 1 13 8
M  V30 16 1 16 15 CFG=3
M  V30 17 1 16 17
M  V30 18 1 16 18
M  V30 END BOND
M  V30 BEGIN COLLECTION
M  V30 MDLV30/STEABS ATOMS=(0)
M  V30 END COLLECTION
M  V30 END CTAB
M  END
$$$$

     RDKit          2D

  0  0  0  0  0  0  0  0  0  0999 V3000
M  V30 BEGIN CTAB
M  V30 COUNTS 19 19 0 0 0
M  V30 BEGIN ATOM
M  V30 1 R 3.000000 0.000000 0.000000 0 MASS=13 VAL=1
M  V30 2 C 1.500000 0.000000 0.000000 0
M  V30 3 C 0.750000 -1.299038 0.000000 0
M  V30 4 C -0.750000 -1.299038 0.000000 0
M  V30 5 C -1.500000 0.000000 0.000000 0
M  V30 6 C -0.750000 1.299038 0.000000 0
M  V30 7 N 0.750000 1.299038 0.000000 0
M  V30 8 C -0.364717 2.302734 0.000000 0
M  V30 9 O -0.207925 3.794517 0.000000 0
M  V30 10 N -1.663755 1.552734 0.000000 0
M  V30 11 O -3.034074 2.162839 0.000000 0
M  V30 12 S -4.247599 1.281161 0.000000 0
M  V30 13 O -5.129277 2.494687 0.000000 0
M  V30 14 O -3.365921 0.067636 0.000000 0
M  V30 15 O -5.461125 0.399483 0.000000 0
M  V30 16 R 0.000000 4.794517 0.000000 0 MASS=6 VAL=1
M  V30 17 C 1.299038 5.544517 0.000000 0
M  V30 18 N 2.598076 4.794517 0.000000 0
M  V30 19 O 1.299038 7.044517 0.000000 0
M  V30 END ATOM
M  V30 BEGIN BOND
M  V30 1 1 2 1 CFG=3
M  V30 2 1 2 3
M  V30 3 1 3 4
M  V30 4 1 5 4 CFG=1
M  V30 5 1 5 6
M  V30 6 1 6 7
M  V30 7 1 7 8
M  V30 8 2 8 9
M  V30 9 1 8 10
M  V30 10 1 10 11
M  V30 11 1 11 12
M  V30 12 2 12 13
M  V30 13 2 12 14
M  V30 14 1 12 15
M  V30 15 1 7 2
M  V30 16 1 10 5
M  V30 17 1 16 17
M  V30 18 1 17 18
M  V30 19 2 17 19
M  V30 END BOND
M  V30 BEGIN COLLECTION
M  V30 MDLV30/STEABS ATOMS=(0)
M  V30 END COLLECTION
M  V30 END CTAB
M  END
$$$$

     RDKit          2D

  0  0  0  0  0  0  0  0  0  0999 V3000
M  V30 BEGIN CTAB
M  V30 COUNTS 19 19 0 0 0
M  V30 BEGIN ATOM
M  V30 1 R 3.000000 0.000000 0.000000 0 MASS=13 VAL=1
M  V30 2 C 1.500000 0.000000 0.000000 0
M  V30 3 C 0.750000 -1.299038 0.000000 0
M  V30 4 C -0.750000 -1.299038 0.000000 0
M  V30 5 C -1.500000 0.000000 0.000000 0
M  V30 6 C -0.750000 1.299038 0.000000 0
M  V30 7 N 0.750000 1.299038 0.000000 0
M  V30 8 C -0.364717 2.302734 0.000000 0
M  V30 9 O -0.207925 3.794517 0.000000 0
M  V30 10 N -1.663755 1.552734 0.000000 0
M  V30 11 O -3.034074 2.162839 0.000000 0
M  V30 12 S -4.247599 1.281161 0.000000 0
M  V30 13 O -5.129277 2.494687 0.000000 0
M  V30 14 O -3.365921 0.067636 0.000000 0
M  V30 15 O -5.461125 0.399483 0.000000 0
M  V30 16 R 0.000000 4.794517 0.000000 0 MASS=1 VAL=1
M  V30 17 C 1.299038 5.544517 0.000000 0
M  V30 18 R 2.598076 4.794517 0.000000 0 MASS=6 VAL=1
M  V30 19 O 1.299038 7.044517 0.000000 0
M  V30 END ATOM
M  V30 BEGIN BOND
M  V30 1 1 2 1 CFG=3
M  V30 2 1 2 3
M  V30 3 1 3 4
M  V30 4 1 5 4 CFG=1
M  V30 5 1 5 6
M  V30 6 1 6 7
M  V30 7 1 7 8
M  V30 8 2 8 9
M  V30 9 1 8 10
M  V30 10 1 10 11
M  V30 11 1 11 12
M  V30 12 2 12 13
M  V30 13 2 12 14
M  V30 14 1 12 15
M  V30 15 1 7 2
M  V30 16 1 10 5
M  V30 17 1 16 17
M  V30 18 1 17 18
M  V30 19 2 17 19
M  V30 END BOND
M  V30 BEGIN COLLECTION
M  V30 MDLV30/STEABS ATOMS=(0)
M  V30 END COLLECTION
M  V30 END CTAB
M  END
$$$$

     RDKit          2D

  0  0  0  0  0  0  0  0  0  0999 V3000
M  V30 BEGIN CTAB
M  V30 COUNTS 30 32 0 0 0
M  V30 BEGIN ATOM
M  V30 1 R 3.000000 0.000000 0.000000 0 MASS=13 VAL=1
M  V30 2 C 1.500000 0.000000 0.000000 0
M  V30 3 C 0.750000 -1.299038 0.000000 0
M  V30 4 C -0.750000 -1.299038 0.000000 0
M  V30 5 C -1.500000 0.000000 0.000000 0
M  V30 6 C -0.750000 1.299038 0.000000 0
M  V30 7 N 0.750000 1.299038 0.000000 0
M  V30 8 C -0.364717 2.302734 0.000000 0
M  V30 9 O -0.207925 3.794517 0.000000 0
M  V30 10 N -1.663755 1.552734 0.000000 0
M  V30 11 O -3.034074 2.162839 0.000000 0
M  V30 12 S -4.247599 1.281161 0.000000 0
M  V30 13 O -5.129277 2.494687 0.000000 0
M  V30 14 O -3.365921 0.067636 0.000000 0
M  V30 15 O -5.461125 0.399483 0.000000 0
M  V30 16 R -4.672067 6.951253 0.000000 0 MASS=11 VAL=1
M  V30 17 S -3.223178 6.563024 0.000000 0
M  V30 18 C -2.162518 7.623684 0.000000 0
M  V30 19 C -0.680986 7.389032 0.000000 0
M  V30 20 C 0.000000 6.052523 0.000000 0
M  V30 21 O 1.497944 5.974019 0.000000 0
M  V30 22 O -0.816959 4.794517 0.000000 0
M  V30 23 N -0.000000 8.725542 0.000000 0
M  V30 24 C 1.060660 9.786202 0.000000 0
M  V30 25 O 2.560660 9.786202 0.000000 0
M  V30 26 C 0.000000 10.846863 0.000000 0
M  V30 27 R 0.000000 12.346863 0.000000 0 MASS=15 VAL=1
M  V30 28 C -1.060660 9.786202 0.000000 0
M  V30 29 C -2.397170 9.105217 0.000000 0
M  V30 30 C -3.733680 9.786202 0.000000 0
M  V30 END ATOM
M  V30 BEGIN BOND
M  V30 1 1 2 1 CFG=3
M  V30 2 1 2 3
M  V30 3 1 3 4
M  V30 4 1 5 4 CFG=1
M  V30 5 1 5 6
M  V30 6 1 6 7
M  V30 7 1 7 8
M  V30 8 2 8 9
M  V30 9 1 8 10
M  V30 10 1 10 11
M  V30 11 1 11 12
M  V30 12 2 12 13
M  V30 13 2 12 14
M  V30 14 1 12 15
M  V30 15 1 7 2
M  V30 16 1 10 5
M  V30 17 1 16 17
M  V30 18 1 17 18
M  V30 19 2 18 19
M  V30 20 1 19 20
M  V30 21 2 20 21
M  V30 22 1 20 22
M  V30 23 1 19 23
M  V30 24 1 23 24
M  V30 25 2 24 25
M  V30 26 1 24 26
M  V30 27 1 26 27 CFG=1
M  V30 28 1 26 28
M  V30 29 1 28 29
M  V30 30 1 29 30 CFG=3
M  V30 31 1 29 18
M  V30 32 1 28 23 CFG=3
M  V30 END BOND
M  V30 BEGIN COLLECTION
M  V30 MDLV30/STEABS ATOMS=(0)
M  V30 END COLLECTION
M  V30 END CTAB
M  END
$$$$

     RDKit          2D

  0  0  0  0  0  0  0  0  0  0999 V3000
M  V30 BEGIN CTAB
M  V30 COUNTS 19 19 0 0 0
M  V30 BEGIN ATOM
M  V30 1 R 3.000000 0.000000 0.000000 0 MASS=13 VAL=1
M  V30 2 C 1.500000 0.000000 0.000000 0
M  V30 3 C 0.750000 -1.299038 0.000000 0
M  V30 4 C -0.750000 -1.299038 0.000000 0
M  V30 5 C -1.500000 0.000000 0.000000 0
M  V30 6 C -0.750000 1.299038 0.000000 0
M  V30 7 N 0.750000 1.299038 0.000000 0
M  V30 8 C -0.364717 2.302734 0.000000 0
M  V30 9 O -0.207925 3.794517 0.000000 0
M  V30 10 N -1.663755 1.552734 0.000000 0
M  V30 11 O -3.034074 2.162839 0.000000 0
M  V30 12 S -4.247599 1.281161 0.000000 0
M  V30 13 O -5.129277 2.494687 0.000000 0
M  V30 14 O -3.365921 0.067636 0.000000 0
M  V30 15 O -5.461125 0.399483 0.000000 0
M  V30 16 R 0.000000 4.794517 0.000000 0 MASS=5 VAL=1
M  V30 17 N 1.299038 5.544517 0.000000 0
M  V30 18 C 2.598076 4.794517 0.000000 0
M  V30 19 C 1.299038 7.044517 0.000000 0
M  V30 END ATOM
M  V30 BEGIN BOND
M  V30 1 1 2 1 CFG=3
M  V30 2 1 2 3
M  V30 3 1 3 4
M  V30 4 1 5 4 CFG=1
M  V30 5 1 5 6
M  V30 6 1 6 7
M  V30 7 1 7 8
M  V30 8 2 8 9
M  V30 9 1 8 10
M  V30 10 1 10 11
M  V30 11 1 11 12
M  V30 12 2 12 13
M  V30 13 2 12 14
M  V30 14 1 12 15
M  V30 15 1 7 2
M  V30 16 1 10 5
M  V30 17 1 16 17
M  V30 18 1 17 18
M  V30 19 1 17 19
M  V30 END BOND
M  V30 BEGIN COLLECTION
M  V30 MDLV30/STEABS ATOMS=(0)
M  V30 END COLLECTION
M  V30 END CTAB
M  END
$$$$

     RDKit          2D

  0  0  0  0  0  0  0  0  0  0999 V3000
M  V30 BEGIN CTAB
M  V30 COUNTS 21 21 0 0 0
M  V30 BEGIN ATOM
M  V30 1 R 3.000000 0.000000 0.000000 0 MASS=13 VAL=1
M  V30 2 C 1.500000 0.000000 0.000000 0
M  V30 3 C 0.750000 -1.299038 0.000000 0
M  V30 4 C -0.750000 -1.299038 0.000000 0
M  V30 5 C -1.500000 0.000000 0.000000 0
M  V30 6 C -0.750000 1.299038 0.000000 0
M  V30 7 N 0.750000 1.299038 0.000000 0
M  V30 8 C -0.364717 2.302734 0.000000 0
M  V30 9 O -0.207925 3.794517 0.000000 0
M  V30 10 N -1.663755 1.552734 0.000000 0
M  V30 11 O -3.034074 2.162839 0.000000 0
M  V30 12 S -4.247599 1.281161 0.000000 0
M  V30 13 O -3.365921 0.067636 0.000000 0
M  V30 14 O -5.129277 2.494687 0.000000 0
M  V30 15 O -5.461125 0.399483 0.000000 0
M  V30 16 R -3.000000 4.794517 0.000000 0 MASS=4 VAL=1
M  V30 17 C -2.250000 6.093555 0.000000 0
M  V30 18 C -0.750000 6.093555 0.000000 0
M  V30 19 N 0.000000 7.392593 0.000000 0
M  V30 20 C 1.500000 7.392593 0.000000 0
M  V30 21 N 2.250000 8.691631 0.000000 0
M  V30 END ATOM
M  V30 BEGIN BOND
M  V30 1 1 2 1 CFG=3
M  V30 2 1 2 3
M  V30 3 1 3 4
M  V30 4 1 5 4 CFG=1
M  V30 5 1 5 6
M  V30 6 1 6 7
M  V30 7 1 7 8
M  V30 8 2 8 9
M  V30 9 1 8 10
M  V30 10 1 10 11
M  V30 11 1 11 12
M  V30 12 2 12 13
M  V30 13 2 12 14
M  V30 14 1 12 15
M  V30 15 1 7 2
M  V30 16 1 10 5
M  V30 17 1 16 17
M  V30 18 1 17 18
M  V30 19 1 18 19
M  V30 20 2 19 20
M  V30 21 1 20 21
M  V30 END BOND
M  V30 BEGIN COLLECTION
M  V30 MDLV30/STEABS ATOMS=(0)
M  V30 END COLLECTION
M  V30 END CTAB
M  END
$$$$

     RDKit          2D

  0  0  0  0  0  0  0  0  0  0999 V3000
M  V30 BEGIN CTAB
M  V30 COUNTS 29 31 0 0 0
M  V30 BEGIN ATOM
M  V30 1 R 3.000000 0.000000 0.000000 0 MASS=13 VAL=1
M  V30 2 C 1.500000 0.000000 0.000000 0
M  V30 3 C 0.750000 -1.299038 0.000000 0
M  V30 4 C -0.750000 -1.299038 0.000000 0
M  V30 5 C -1.500000 0.000000 0.000000 0
M  V30 6 C -0.750000 1.299038 0.000000 0
M  V30 7 N 0.750000 1.299038 0.000000 0
M  V30 8 C -0.364717 2.302734 0.000000 0
M  V30 9 O -0.207925 3.794517 0.000000 0
M  V30 10 N -1.663755 1.552734 0.000000 0
M  V30 11 O -3.034074 2.162839 0.000000 0
M  V30 12 S -4.247599 1.281161 0.000000 0
M  V30 13 O -5.129277 2.494687 0.000000 0
M  V30 14 O -3.365921 0.067636 0.000000 0
M  V30 15 O -5.461125 0.399483 0.000000 0
M  V30 16 R 3.525976 5.306139 0.000000 0 MASS=11 VAL=1
M  V30 17 S 2.775976 6.605177 0.000000 0
M  V30 18 C 1.275976 6.605177 0.000000 0
M  V30 19 C 0.394298 7.818703 0.000000 0
M  V30 20 C 0.857824 9.245287 0.000000 0
M  V30 21 O -0.145872 10.360005 0.000000 0
M  V30 22 O 2.325045 9.557155 0.000000 0
M  V30 23 N -1.032286 7.355177 0.000000 0
M  V30 24 C -2.532286 7.355177 0.000000 0
M  V30 25 O -3.592947 8.415837 0.000000 0
M  V30 26 C -2.532286 5.855177 0.000000 0
M  V30 27 R -3.592947 4.794517 0.000000 0 MASS=15 VAL=1
M  V30 28 C -1.032286 5.855177 0.000000 0
M  V30 29 C 0.394298 5.391652 0.000000 0
M  V30 END ATOM
M  V30 BEGIN BOND
M  V30 1 1 2 1 CFG=3
M  V30 2 1 2 3
M  V30 3 1 3 4
M  V30 4 1 5 4 CFG=1
M  V30 5 1 5 6
M  V30 6 1 6 7
M  V30 7 1 7 8
M  V30 8 2 8 9
M  V30 9 1 8 10
M  V30 10 1 10 11
M  V30 11 1 11 12
M  V30 12 2 12 13
M  V30 13 2 12 14
M  V30 14 1 12 15
M  V30 15 1 7 2
M  V30 16 1 10 5
M  V30 17 1 16 17
M  V30 18 1 17 18
M  V30 19 2 18 19
M  V30 20 1 19 20
M  V30 21 2 20 21
M  V30 22 1 20 22
M  V30 23 1 19 23
M  V30 24 1 23 24
M  V30 25 2 24 25
M  V30 26 1 24 26
M  V30 27 1 26 27 CFG=1
M  V30 28 1 26 28
M  V30 29 1 28 29 CFG=3
M  V30 30 1 29 18
M  V30 31 1 28 23
M  V30 END BOND
M  V30 BEGIN COLLECTION
M  V30 MDLV30/STEABS ATOMS=(0)
M  V30 END COLLECTION
M  V30 END CTAB
M  END
$$$$

     RDKit          2D

  0  0  0  0  0  0  0  0  0  0999 V3000
M  V30 BEGIN CTAB
M  V30 COUNTS 30 32 0 0 0
M  V30 BEGIN ATOM
M  V30 1 R 3.000000 0.000000 0.000000 0 MASS=13 VAL=1
M  V30 2 C 1.500000 0.000000 0.000000 0
M  V30 3 C 0.750000 -1.299038 0.000000 0
M  V30 4 C -0.750000 -1.299038 0.000000 0
M  V30 5 C -1.500000 0.000000 0.000000 0
M  V30 6 C -0.750000 1.299038 0.000000 0
M  V30 7 N 0.750000 1.299038 0.000000 0
M  V30 8 C -0.364717 2.302734 0.000000 0
M  V30 9 O -0.207925 3.794517 0.000000 0
M  V30 10 N -1.663755 1.552734 0.000000 0
M  V30 11 O -3.034074 2.162839 0.000000 0
M  V30 12 S -4.247599 1.281161 0.000000 0
M  V30 13 O -5.129277 2.494687 0.000000 0
M  V30 14 O -3.365921 0.067636 0.000000 0
M  V30 15 O -5.461125 0.399483 0.000000 0
M  V30 16 R 3.000000 6.093555 0.000000 0 MASS=13 VAL=1
M  V30 17 C 1.500000 6.093555 0.000000 0
M  V30 18 C 0.750000 4.794517 0.000000 0
M  V30 19 C -0.750000 4.794517 0.000000 0
M  V30 20 C -1.500000 6.093555 0.000000 0
M  V30 21 C -0.750000 7.392593 0.000000 0
M  V30 22 N 0.750000 7.392593 0.000000 0
M  V30 23 C -0.364717 8.396289 0.000000 0
M  V30 24 O -0.207925 9.888072 0.000000 0
M  V30 25 N -1.663755 7.646289 0.000000 0
M  V30 26 O -3.034074 8.256394 0.000000 0
M  V30 27 S -4.247599 7.374716 0.000000 0
M  V30 28 O -5.129277 8.588242 0.000000 0
M  V30 29 O -3.365921 6.161191 0.000000 0
M  V30 30 O -5.461125 6.493038 0.000000 0
M  V30 END ATOM
M  V30 BEGIN BOND
M  V30 1 1 2 1 CFG=3
M  V30 2 1 2 3
M  V30 3 1 3 4
M  V30 4 1 5 4 CFG=1
M  V30 5 1 5 6
M  V30 6 1 6 7
M  V30 7 1 7 8
M  V30 8 2 8 9
M  V30 9 1 8 10
M  V30 10 1 10 11
M  V30 11 1 11 12
M  V30 12 2 12 13
M  V30 13 2 12 14
M  V30 14 1 12 15
M  V30 15 1 7 2
M  V30 16 1 10 5
M  V30 17 1 17 16 CFG=3
M  V30 18 1 17 18
M  V30 19 1 18 19
M  V30 20 1 20 19 CFG=1
M  V30 21 1 20 21
M  V30 22 1 21 22
M  V30 23 1 22 23
M  V30 24 2 23 24
M  V30 25 1 23 25
M  V30 26 1 25 26
M  V30 27 1 26 27
M  V30 28 2 27 28
M  V30 29 2 27 29
M  V30 30 1 27 30
M  V30 31 1 22 17
M  V30 32 1 25 20
M  V30 END BOND
M  V30 BEGIN COLLECTION
M  V30 MDLV30/STEABS ATOMS=(0)
M  V30 END COLLECTION
M  V30 END CTAB
M  END
$$$$

     RDKit          2D

  0  0  0  0  0  0  0  0  0  0999 V3000
M  V30 BEGIN CTAB
M  V30 COUNTS 22 23 0 0 0
M  V30 BEGIN ATOM
M  V30 1 R 3.000000 0.000000 0.000000 0 MASS=13 VAL=1
M  V30 2 C 1.500000 0.000000 0.000000 0
M  V30 3 C 0.750000 -1.299038 0.000000 0
M  V30 4 C -0.750000 -1.299038 0.000000 0
M  V30 5 C -1.500000 0.000000 0.000000 0
M  V30 6 C -0.750000 1.299038 0.000000 0
M  V30 7 N 0.750000 1.299038 0.000000 0
M  V30 8 C -0.364717 2.302734 0.000000 0
M  V30 9 O -0.207925 3.794517 0.000000 0
M  V30 10 N -1.663755 1.552734 0.000000 0
M  V30 11 O -3.034074 2.162839 0.000000 0
M  V30 12 S -4.247599 1.281161 0.000000 0
M  V30 13 O -5.129277 2.494687 0.000000 0
M  V30 14 O -3.365921 0.067636 0.000000 0
M  V30 15 O -5.461125 0.399483 0.000000 0
M  V30 16 R 2.775976 6.008042 0.000000 0 MASS=13 VAL=1
M  V30 17 C 1.275976 6.008042 0.000000 0
M  V30 18 C 0.394298 7.221568 0.000000 0
M  V30 19 C -1.032286 6.758042 0.000000 0
M  V30 20 R -2.245812 7.639720 0.000000 0 MASS=15 VAL=1
M  V30 21 C -1.032286 5.258042 0.000000 0
M  V30 22 N 0.394298 4.794517 0.000000 0
M  V30 END ATOM
M  V30 BEGIN BOND
M  V30 1 1 2 1 CFG=3
M  V30 2 1 2 3
M  V30 3 1 3 4
M  V30 4 1 5 4 CFG=1
M  V30 5 1 5 6
M  V30 6 1 6 7
M  V30 7 1 7 8
M  V30 8 2 8 9
M  V30 9 1 8 10
M  V30 10 1 10 11
M  V30 11 1 11 12
M  V30 12 2 12 13
M  V30 13 2 12 14
M  V30 14 1 12 15
M  V30 15 1 7 2
M  V30 16 1 10 5
M  V30 17 1 17 16 CFG=1
M  V30 18 1 17 18
M  V30 19 1 18 19
M  V30 20 1 19 20 CFG=1
M  V30 21 1 19 21
M  V30 22 1 21 22
M  V30 23 1 22 17
M  V30 END BOND
M  V30 BEGIN COLLECTION
M  V30 MDLV30/STEABS ATOMS=(0)
M  V30 END COLLECTION
M  V30 END CTAB
M  END
$$$$

     RDKit          2D

  0  0  0  0  0  0  0  0  0  0999 V3000
M  V30 BEGIN CTAB
M  V30 COUNTS 19 19 0 0 0
M  V30 BEGIN ATOM
M  V30 1 R 3.000000 0.000000 0.000000 0 MASS=13 VAL=1
M  V30 2 C 1.500000 0.000000 0.000000 0
M  V30 3 C 0.750000 -1.299038 0.000000 0
M  V30 4 C -0.750000 -1.299038 0.000000 0
M  V30 5 C -1.500000 0.000000 0.000000 0
M  V30 6 C -0.750000 1.299038 0.000000 0
M  V30 7 N 0.750000 1.299038 0.000000 0
M  V30 8 C -0.364717 2.302734 0.000000 0
M  V30 9 O -0.207925 3.794517 0.000000 0
M  V30 10 N -1.663755 1.552734 0.000000 0
M  V30 11 O -3.034074 2.162839 0.000000 0
M  V30 12 S -4.247599 1.281161 0.000000 0
M  V30 13 O -5.129277 2.494687 0.000000 0
M  V30 14 O -3.365921 0.067636 0.000000 0
M  V30 15 O -5.461125 0.399483 0.000000 0
M  V30 16 R 0.000000 4.794517 0.000000 0 MASS=8 VAL=1
M  V30 17 C 1.299038 5.544517 0.000000 0
M  V30 18 C 2.598076 4.794517 0.000000 0
M  V30 19 O 1.299038 7.044517 0.000000 0
M  V30 END ATOM
M  V30 BEGIN BOND
M  V30 1 1 2 1 CFG=3
M  V30 2 1 2 3
M  V30 3 1 3 4
M  V30 4 1 5 4 CFG=1
M  V30 5 1 5 6
M  V30 6 1 6 7
M  V30 7 1 7 8
M  V30 8 2 8 9
M  V30 9 1 8 10
M  V30 10 1 10 11
M  V30 11 1 11 12
M  V30 12 2 12 13
M  V30 13 2 12 14
M  V30 14 1 12 15
M  V30 15 1 7 2
M  V30 16 1 10 5
M  V30 17 1 17 16 CFG=3
M  V30 18 1 17 18
M  V30 19 1 17 19
M  V30 END BOND
M  V30 BEGIN COLLECTION
M  V30 MDLV30/STEABS ATOMS=(0)
M  V30 END COLLECTION
M  V30 END CTAB
M  END
$$$$

     RDKit          2D

  0  0  0  0  0  0  0  0  0  0999 V3000
M  V30 BEGIN CTAB
M  V30 COUNTS 11 10 0 0 0
M  V30 BEGIN ATOM
M  V30 1 R 2.775976 0.000000 0.000000 0 MASS=13 VAL=1
M  V30 2 C 1.275976 0.000000 0.000000 0
M  V30 3 C 0.394298 1.213525 0.000000 0
M  V30 4 C -1.032286 0.750000 0.000000 0
M  V30 5 R -2.245812 1.631678 0.000000 0 MASS=15 VAL=1
M  V30 6 C -1.032286 -0.750000 0.000000 0
M  V30 7 N 0.394298 -1.213525 0.000000 0
M  V30 8 R 0.000000 2.631678 0.000000 0 MASS=6 VAL=1
M  V30 9 C 1.299038 3.381678 0.000000 0
M  V30 10 N 2.598076 2.631678 0.000000 0
M  V30 11 O 1.299038 4.881678 0.000000 0
M  V30 END ATOM
M  V30 BEGIN BOND
M  V30 1 1 2 1 CFG=1
M  V30 2 1 2 3
M  V30 3 1 3 4
M  V30 4 1 4 5 CFG=1
M  V30 5 1 4 6
M  V30 6 1 6 7
M  V30 7 1 7 2
M  V30 8 1 8 9
M  V30 9 1 9 10
M  V30 10 2 9 11
M  V30 END BOND
M  V30 BEGIN COLLECTION
M  V30 MDLV30/STEABS ATOMS=(0)
M  V30 END COLLECTION
M  V30 END CTAB
M  END
$$$$

     RDKit          2D

  0  0  0  0  0  0  0  0  0  0999 V3000
M  V30 BEGIN CTAB
M  V30 COUNTS 11 10 0 0 0
M  V30 BEGIN ATOM
M  V30 1 R 2.775976 0.000000 0.000000 0 MASS=13 VAL=1
M  V30 2 C 1.275976 0.000000 0.000000 0
M  V30 3 C 0.394298 1.213525 0.000000 0
M  V30 4 C -1.032286 0.750000 0.000000 0
M  V30 5 R -2.245812 1.631678 0.000000 0 MASS=15 VAL=1
M  V30 6 C -1.032286 -0.750000 0.000000 0
M  V30 7 N 0.394298 -1.213525 0.000000 0
M  V30 8 R 0.000000 2.631678 0.000000 0 MASS=1 VAL=1
M  V30 9 C 1.299038 3.381678 0.000000 0
M  V30 10 R 2.598076 2.631678 0.000000 0 MASS=6 VAL=1
M  V30 11 O 1.299038 4.881678 0.000000 0
M  V30 END ATOM
M  V30 BEGIN BOND
M  V30 1 1 2 1 CFG=1
M  V30 2 1 2 3
M  V30 3 1 3 4
M  V30 4 1 4 5 CFG=1
M  V30 5 1 4 6
M  V30 6 1 6 7
M  V30 7 1 7 2
M  V30 8 1 8 9
M  V30 9 1 9 10
M  V30 10 2 9 11
M  V30 END BOND
M  V30 BEGIN COLLECTION
M  V30 MDLV30/STEABS ATOMS=(0)
M  V30 END COLLECTION
M  V30 END CTAB
M  END
$$$$

     RDKit          2D

  0  0  0  0  0  0  0  0  0  0999 V3000
M  V30 BEGIN CTAB
M  V30 COUNTS 22 23 0 0 0
M  V30 BEGIN ATOM
M  V30 1 R 2.775976 0.000000 0.000000 0 MASS=13 VAL=1
M  V30 2 C 1.275976 0.000000 0.000000 0
M  V30 3 C 0.394298 1.213525 0.000000 0
M  V30 4 C -1.032286 0.750000 0.000000 0
M  V30 5 R -2.245812 1.631678 0.000000 0 MASS=15 VAL=1
M  V30 6 C -1.032286 -0.750000 0.000000 0
M  V30 7 N 0.394298 -1.213525 0.000000 0
M  V30 8 R -4.672067 4.788414 0.000000 0 MASS=11 VAL=1
M  V30 9 S -3.223178 4.400185 0.000000 0
M  V30 10 C -2.162518 5.460845 0.000000 0
M  V30 11 C -0.680986 5.226194 0.000000 0
M  V30 12 C 0.000000 3.889684 0.000000 0
M  V30 13 O 1.497944 3.811180 0.000000 0
M  V30 14 O -0.816959 2.631678 0.000000 0
M  V30 15 N -0.000000 6.562703 0.000000 0
M  V30 16 C 1.060660 7.623363 0.000000 0
M  V30 17 O 2.560660 7.623363 0.000000 0
M  V30 18 C 0.000000 8.684024 0.000000 0
M  V30 19 R 0.000000 10.184024 0.000000 0 MASS=15 VAL=1
M  V30 20 C -1.060660 7.623363 0.000000 0
M  V30 21 C -2.397170 6.942378 0.000000 0
M  V30 22 C -3.733680 7.623363 0.000000 0
M  V30 END ATOM
M  V30 BEGIN BOND
M  V30 1 1 2 1 CFG=1
M  V30 2 1 2 3
M  V30 3 1 3 4
M  V30 4 1 4 5 CFG=1
M  V30 5 1 4 6
M  V30 6 1 6 7
M  V30 7 1 7 2
M  V30 8 1 8 9
M  V30 9 1 9 10
M  V30 10 2 10 11
M  V30 11 1 11 12
M  V30 12 2 12 13
M  V30 13 1 12 14
M  V30 14 1 11 15
M  V30 15 1 15 16
M  V30 16 2 16 17
M  V30 17 1 16 18
M  V30 18 1 18 19 CFG=1
M  V30 19 1 18 20
M  V30 20 1 20 21
M  V30 21 1 21 22 CFG=3
M  V30 22 1 21 10
M  V30 23 1 20 15 CFG=3
M  V30 END BOND
M  V30 BEGIN COLLECTION
M  V30 MDLV30/STEABS ATOMS=(0)
M  V30 END COLLECTION
M  V30 END CTAB
M  END
$$$$

     RDKit          2D

  0  0  0  0  0  0  0  0  0  0999 V3000
M  V30 BEGIN CTAB
M  V30 COUNTS 11 10 0 0 0
M  V30 BEGIN ATOM
M  V30 1 R 2.775976 0.000000 0.000000 0 MASS=13 VAL=1
M  V30 2 C 1.275976 0.000000 0.000000 0
M  V30 3 C 0.394298 1.213525 0.000000 0
M  V30 4 C -1.032286 0.750000 0.000000 0
M  V30 5 R -2.245812 1.631678 0.000000 0 MASS=15 VAL=1
M  V30 6 C -1.032286 -0.750000 0.000000 0
M  V30 7 N 0.394298 -1.213525 0.000000 0
M  V30 8 R 0.000000 2.631678 0.000000 0 MASS=5 VAL=1
M  V30 9 N 1.299038 3.381678 0.000000 0
M  V30 10 C 2.598076 2.631678 0.000000 0
M  V30 11 C 1.299038 4.881678 0.000000 0
M  V30 END ATOM
M  V30 BEGIN BOND
M  V30 1 1 2 1 CFG=1
M  V30 2 1 2 3
M  V30 3 1 3 4
M  V30 4 1 4 5 CFG=1
M  V30 5 1 4 6
M  V30 6 1 6 7
M  V30 7 1 7 2
M  V30 8 1 8 9
M  V30 9 1 9 10
M  V30 10 1 9 11
M  V30 END BOND
M  V30 BEGIN COLLECTION
M  V30 MDLV30/STEABS ATOMS=(0)
M  V30 END COLLECTION
M  V30 END CTAB
M  END
$$$$

     RDKit          2D

  0  0  0  0  0  0  0  0  0  0999 V3000
M  V30 BEGIN CTAB
M  V30 COUNTS 13 12 0 0 0
M  V30 BEGIN ATOM
M  V30 1 R 2.775976 0.000000 0.000000 0 MASS=13 VAL=1
M  V30 2 C 1.275976 0.000000 0.000000 0
M  V30 3 C 0.394298 1.213525 0.000000 0
M  V30 4 C -1.032286 0.750000 0.000000 0
M  V30 5 R -2.245812 1.631678 0.000000 0 MASS=15 VAL=1
M  V30 6 C -1.032286 -0.750000 0.000000 0
M  V30 7 N 0.394298 -1.213525 0.000000 0
M  V30 8 R -3.000000 2.631678 0.000000 0 MASS=4 VAL=1
M  V30 9 C -2.250000 3.930716 0.000000 0
M  V30 10 C -0.750000 3.930716 0.000000 0
M  V30 11 N 0.000000 5.229754 0.000000 0
M  V30 12 C 1.500000 5.229754 0.000000 0
M  V30 13 N 2.250000 6.528792 0.000000 0
M  V30 END ATOM
M  V30 BEGIN BOND
M  V30 1 1 2 1 CFG=1
M  V30 2 1 2 3
M  V30 3 1 3 4
M  V30 4 1 4 5 CFG=1
M  V30 5 1 4 6
M  V30 6 1 6 7
M  V30 7 1 7 2
M  V30 8 1 8 9
M  V30 9 1 9 10
M  V30 10 1 10 11
M  V30 11 2 11 12
M  V30 12 1 12 13
M  V30 END BOND
M  V30 BEGIN COLLECTION
M  V30 MDLV30/STEABS ATOMS=(0)
M  V30 END COLLECTION
M  V30 END CTAB
M  END
$$$$

     RDKit          2D

  0  0  0  0  0  0  0  0  0  0999 V3000
M  V30 BEGIN CTAB
M  V30 COUNTS 21 22 0 0 0
M  V30 BEGIN ATOM
M  V30 1 R 2.775976 0.000000 0.000000 0 MASS=13 VAL=1
M  V30 2 C 1.275976 0.000000 0.000000 0
M  V30 3 C 0.394298 1.213525 0.000000 0
M  V30 4 C -1.032286 0.750000 0.000000 0
M  V30 5 R -2.245812 1.631678 0.000000 0 MASS=15 VAL=1
M  V30 6 C -1.032286 -0.750000 0.000000 0
M  V30 7 N 0.394298 -1.213525 0.000000 0
M  V30 8 R 3.525976 3.143300 0.000000 0 MASS=11 VAL=1
M  V30 9 S 2.775976 4.442338 0.000000 0
M  V30 10 C 1.275976 4.442338 0.000000 0
M  V30 11 C 0.394298 5.655864 0.000000 0
M  V30 12 C 0.857824 7.082448 0.000000 0
M  V30 13 O -0.145872 8.197166 0.000000 0
M  V30 14 O 2.325045 7.394316 0.000000 0
M  V30 15 N -1.032286 5.192338 0.000000 0
M  V30 16 C -2.532286 5.192338 0.000000 0
M  V30 17 O -3.592947 6.252998 0.000000 0
M  V30 18 C -2.532286 3.692338 0.000000 0
M  V30 19 R -3.592947 2.631678 0.000000 0 MASS=15 VAL=1
M  V30 20 C -1.032286 3.692338 0.000000 0
M  V30 21 C 0.394298 3.228813 0.000000 0
M  V30 END ATOM
M  V30 BEGIN BOND
M  V30 1 1 2 1 CFG=1
M  V30 2 1 2 3
M  V30 3 1 3 4
M  V30 4 1 4 5 CFG=1
M  V30 5 1 4 6
M  V30 6 1 6 7
M  V30 7 1 7 2
M  V30 8 1 8 9
M  V30 9 1 9 10
M  V30 10 2 10 11
M  V30 11 1 11 12
M  V30 12 2 12 13
M  V30 13 1 12 14
M  V30 14 1 11 15
M  V30 15 1 15 16
M  V30 16 2 16 17
M  V30 17 1 16 18
M  V30 18 1 18 19 CFG=1
M  V30 19 1 18 20
M  V30 20 1 20 21 CFG=3
M  V30 21 1 21 10
M  V30 22 1 20 15
M  V30 END BOND
M  V30 BEGIN COLLECTION
M  V30 MDLV30/STEABS ATOMS=(0)
M  V30 END COLLECTION
M  V30 END CTAB
M  END
$$$$

     RDKit          2D

  0  0  0  0  0  0  0  0  0  0999 V3000
M  V30 BEGIN CTAB
M  V30 COUNTS 22 23 0 0 0
M  V30 BEGIN ATOM
M  V30 1 R 2.775976 0.000000 0.000000 0 MASS=13 VAL=1
M  V30 2 C 1.275976 0.000000 0.000000 0
M  V30 3 C 0.394298 1.213525 0.000000 0
M  V30 4 C -1.032286 0.750000 0.000000 0
M  V30 5 R -2.245812 1.631678 0.000000 0 MASS=15 VAL=1
M  V30 6 C -1.032286 -0.750000 0.000000 0
M  V30 7 N 0.394298 -1.213525 0.000000 0
M  V30 8 R 3.000000 3.930716 0.000000 0 MASS=13 VAL=1
M  V30 9 C 1.500000 3.930716 0.000000 0
M  V30 10 C 0.750000 2.631678 0.000000 0
M  V30 11 C -0.750000 2.631678 0.000000 0
M  V30 12 C -1.500000 3.930716 0.000000 0
M  V30 13 C -0.750000 5.229754 0.000000 0
M  V30 14 N 0.750000 5.229754 0.000000 0
M  V30 15 C -0.364717 6.233450 0.000000 0
M  V30 16 O -0.207925 7.725233 0.000000 0
M  V30 17 N -1.663755 5.483450 0.000000 0
M  V30 18 O -3.034074 6.093555 0.000000 0
M  V30 19 S -4.247599 5.211877 0.000000 0
M  V30 20 O -5.129277 6.425403 0.000000 0
M  V30 21 O -3.365921 3.998352 0.000000 0
M  V30 22 O -5.461125 4.330199 0.000000 0
M  V30 END ATOM
M  V30 BEGIN BOND
M  V30 1 1 2 1 CFG=1
M  V30 2 1 2 3
M  V30 3 1 3 4
M  V30 4 1 4 5 CFG=1
M  V30 5 1 4 6
M  V30 6 1 6 7
M  V30 7 1 7 2
M  V30 8 1 9 8 CFG=3
M  V30 9 1 9 10
M  V30 10 1 10 11
M  V30 11 1 12 11 CFG=1
M  V30 12 1 12 13
M  V30 13 1 13 14
M  V30 14 1 14 15
M  V30 15 2 15 16
M  V30 16 1 15 17
M  V30 17 1 17 18
M  V30 18 1 18 19
M  V30 19 2 19 20
M  V30 20 2 19 21
M  V30 21 1 19 22
M  V30 22 1 14 9
M  V30 23 1 17 12
M  V30 END BOND
M  V30 BEGIN COLLECTION
M  V30 MDLV30/STEABS ATOMS=(0)
M  V30 END COLLECTION
M  V30 END CTAB
M  END
$$$$

     RDKit          2D

  0  0  0  0  0  0  0  0  0  0999 V3000
M  V30 BEGIN CTAB
M  V30 COUNTS 14 14 0 0 0
M  V30 BEGIN ATOM
M  V30 1 R 2.775976 0.000000 0.000000 0 MASS=13 VAL=1
M  V30 2 C 1.275976 0.000000 0.000000 0
M  V30 3 C 0.394298 1.213525 0.000000 0
M  V30 4 C -1.032286 0.750000 0.000000 0
M  V30 5 R -2.245812 1.631678 0.000000 0 MASS=15 VAL=1
M  V30 6 C -1.032286 -0.750000 0.000000 0
M  V30 7 N 0.394298 -1.213525 0.000000 0
M  V30 8 R 2.775976 3.845203 0.000000 0 MASS=13 VAL=1
M  V30 9 C 1.275976 3.845203 0.000000 0
M  V30 10 C 0.394298 5.058729 0.000000 0
M  V30 11 C -1.032286 4.595203 0.000000 0
M  V30 12 R -2.245812 5.476881 0.000000 0 MASS=15 VAL=1
M  V30 13 C -1.032286 3.095203 0.000000 0
M  V30 14 N 0.394298 2.631678 0.000000 0
M  V30 END ATOM
M  V30 BEGIN BOND
M  V30 1 1 2 1 CFG=1
M  V30 2 1 2 3
M  V30 3 1 3 4
M  V30 4 1 4 5 CFG=1
M  V30 5 1 4 6
M  V30 6 1 6 7
M  V30 7 1 7 2
M  V30 8 1 9 8 CFG=1
M  V30 9 1 9 10
M  V30 10 1 10 11
M  V30 11 1 11 12 CFG=1
M  V30 12 1 11 13
M  V30 13 1 13 14
M  V30 14 1 14 9
M  V30 END BOND
M  V30 BEGIN COLLECTION
M  V30 MDLV30/STEABS ATOMS=(0)
M  V30 END COLLECTION
M  V30 END CTAB
M  END
$$$$

     RDKit          2D

  0  0  0  0  0  0  0  0  0  0999 V3000
M  V30 BEGIN CTAB
M  V30 COUNTS 11 10 0 0 0
M  V30 BEGIN ATOM
M  V30 1 R 2.775976 0.000000 0.000000 0 MASS=13 VAL=1
M  V30 2 C 1.275976 0.000000 0.000000 0
M  V30 3 C 0.394298 1.213525 0.000000 0
M  V30 4 C -1.032286 0.750000 0.000000 0
M  V30 5 R -2.245812 1.631678 0.000000 0 MASS=15 VAL=1
M  V30 6 C -1.032286 -0.750000 0.000000 0
M  V30 7 N 0.394298 -1.213525 0.000000 0
M  V30 8 R 0.000000 2.631678 0.000000 0 MASS=8 VAL=1
M  V30 9 C 1.299038 3.381678 0.000000 0
M  V30 10 C 2.598076 2.631678 0.000000 0
M  V30 11 O 1.299038 4.881678 0.000000 0
M  V30 END ATOM
M  V30 BEGIN BOND
M  V30 1 1 2 1 CFG=1
M  V30 2 1 2 3
M  V30 3 1 3 4
M  V30 4 1 4 5 CFG=1
M  V30 5 1 4 6
M  V30 6 1 6 7
M  V30 7 1 7 2
M  V30 8 1 9 8 CFG=3
M  V30 9 1 9 10
M  V30 10 1 9 11
M  V30 END BOND
M  V30 BEGIN COLLECTION
M  V30 MDLV30/STEABS ATOMS=(0)
M  V30 END COLLECTION
M  V30 END CTAB
M  END
$$$$

     RDKit          2D

  0  0  0  0  0  0  0  0  0  0999 V3000
M  V30 BEGIN CTAB
M  V30 COUNTS 8 6 0 0 0
M  V30 BEGIN ATOM
M  V30 1 R 0.000000 0.000000 0.000000 0 MASS=8 VAL=1
M  V30 2 C 1.299038 0.750000 0.000000 0
M  V30 3 C 2.598076 -0.000000 0.000000 0
M  V30 4 O 1.299038 2.250000 0.000000 0
M  V30 5 R 0.000000 3.250000 0.000000 0 MASS=6 VAL=1
M  V30 6 C 1.299038 4.000000 0.000000 0
M  V30 7 N 2.598076 3.250000 0.000000 0
M  V30 8 O 1.299038 5.500000 0.000000 0
M  V30 END ATOM
M  V30 BEGIN BOND
M  V30 1 1 2 1 CFG=3
M  V30 2 1 2 3
M  V30 3 1 2 4
M  V30 4 1 5 6
M  V30 5 1 6 7
M  V30 6 2 6 8
M  V30 END BOND
M  V30 BEGIN COLLECTION
M  V30 MDLV30/STEABS ATOMS=(0)
M  V30 END COLLECTION
M  V30 END CTAB
M  END
$$$$

     RDKit          2D

  0  0  0  0  0  0  0  0  0  0999 V3000
M  V30 BEGIN CTAB
M  V30 COUNTS 8 6 0 0 0
M  V30 BEGIN ATOM
M  V30 1 R 0.000000 0.000000 0.000000 0 MASS=8 VAL=1
M  V30 2 C 1.299038 0.750000 0.000000 0
M  V30 3 C 2.598076 -0.000000 0.000000 0
M  V30 4 O 1.299038 2.250000 0.000000 0
M  V30 5 R 0.000000 3.250000 0.000000 0 MASS=1 VAL=1
M  V30 6 C 1.299038 4.000000 0.000000 0
M  V30 7 R 2.598076 3.250000 0.000000 0 MASS=6 VAL=1
M  V30 8 O 1.299038 5.500000 0.000000 0
M  V30 END ATOM
M  V30 BEGIN BOND
M  V30 1 1 2 1 CFG=3
M  V30 2 1 2 3
M  V30 3 1 2 4
M  V30 4 1 5 6
M  V30 5 1 6 7
M  V30 6 2 6 8
M  V30 END BOND
M  V30 BEGIN COLLECTION
M  V30 MDLV30/STEABS ATOMS=(0)
M  V30 END COLLECTION
M  V30 END CTAB
M  END
$$$$

     RDKit          2D

  0  0  0  0  0  0  0  0  0  0999 V3000
M  V30 BEGIN CTAB
M  V30 COUNTS 19 19 0 0 0
M  V30 BEGIN ATOM
M  V30 1 R 3.560660 0.000000 0.000000 0 MASS=8 VAL=1
M  V30 2 C 4.859698 0.750000 0.000000 0
M  V30 3 C 6.158736 -0.000000 0.000000 0
M  V30 4 O 4.859698 2.250000 0.000000 0
M  V30 5 R -4.672067 -2.834950 0.000000 0 MASS=11 VAL=1
M  V30 6 S -3.223178 -3.223178 0.000000 0
M  V30 7 C -2.162518 -2.162518 0.000000 0
M  V30 8 C -0.680986 -2.397170 0.000000 0
M  V30 9 C 0.000000 -3.733680 0.000000 0
M  V30 10 O 1.497944 -3.812184 0.000000 0
M  V30 11 O -0.816959 -4.991686 0.000000 0
M  V30 12 N -0.000000 -1.060660 0.000000 0
M  V30 13 C 1.060660 0.000000 0.000000 0
M  V30 14 O 2.560660 0.000000 0.000000 0
M  V30 15 C 0.000000 1.060660 0.000000 0
M  V30 16 R 0.000000 2.560660 0.000000 0 MASS=15 VAL=1
M  V30 17 C -1.060660 0.000000 0.000000 0
M  V30 18 C -2.397170 -0.680986 0.000000 0
M  V30 19 C -3.733680 0.000000 0.000000 0
M  V30 END ATOM
M  V30 BEGIN BOND
M  V30 1 1 2 1 CFG=3
M  V30 2 1 2 3
M  V30 3 1 2 4
M  V30 4 1 5 6
M  V30 5 1 6 7
M  V30 6 2 7 8
M  V30 7 1 8 9
M  V30 8 2 9 10
M  V30 9 1 9 11
M  V30 10 1 8 12
M  V30 11 1 12 13
M  V30 12 2 13 14
M  V30 13 1 13 15
M  V30 14 1 15 16 CFG=1
M  V30 15 1 15 17
M  V30 16 1 17 18
M  V30 17 1 18 19 CFG=3
M  V30 18 1 18 7
M  V30 19 1 17 12 CFG=3
M  V30 END BOND
M  V30 BEGIN COLLECTION
M  V30 MDLV30/STEABS ATOMS=(0)
M  V30 END COLLECTION
M  V30 END CTAB
M  END
$$$$

     RDKit          2D

  0  0  0  0  0  0  0  0  0  0999 V3000
M  V30 BEGIN CTAB
M  V30 COUNTS 8 6 0 0 0
M  V30 BEGIN ATOM
M  V30 1 R 0.000000 0.000000 0.000000 0 MASS=8 VAL=1
M  V30 2 C 1.299038 0.750000 0.000000 0
M  V30 3 C 2.598076 -0.000000 0.000000 0
M  V30 4 O 1.299038 2.250000 0.000000 0
M  V30 5 R 0.000000 3.250000 0.000000 0 MASS=5 VAL=1
M  V30 6 N 1.299038 4.000000 0.000000 0
M  V30 7 C 2.598076 3.250000 0.000000 0
M  V30 8 C 1.299038 5.500000 0.000000 0
M  V30 END ATOM
M  V30 BEGIN BOND
M  V30 1 1 2 1 CFG=3
M  V30 2 1 2 3
M  V30 3 1 2 4
M  V30 4 1 5 6
M  V30 5 1 6 7
M  V30 6 1 6 8
M  V30 END BOND
M  V30 BEGIN COLLECTION
M  V30 MDLV30/STEABS ATOMS=(0)
M  V30 END COLLECTION
M  V30 END CTAB
M  END
$$$$

     RDKit          2D

  0  0  0  0  0  0  0  0  0  0999 V3000
M  V30 BEGIN CTAB
M  V30 COUNTS 10 8 0 0 0
M  V30 BEGIN ATOM
M  V30 1 R 0.000000 2.299038 0.000000 0 MASS=8 VAL=1
M  V30 2 C 1.299038 3.049038 0.000000 0
M  V30 3 C 2.598076 2.299038 0.000000 0
M  V30 4 O 1.299038 4.549038 0.000000 0
M  V30 5 R -3.000000 -2.598076 0.000000 0 MASS=4 VAL=1
M  V30 6 C -2.250000 -1.299038 0.000000 0
M  V30 7 C -0.750000 -1.299038 0.000000 0
M  V30 8 N 0.000000 0.000000 0.000000 0
M  V30 9 C 1.500000 0.000000 0.000000 0
M  V30 10 N 2.250000 1.299038 0.000000 0
M  V30 END ATOM
M  V30 BEGIN BOND
M  V30 1 1 2 1 CFG=3
M  V30 2 1 2 3
M  V30 3 1 2 4
M  V30 4 1 5 6
M  V30 5 1 6 7
M  V30 6 1 7 8
M  V30 7 2 8 9
M  V30 8 1 9 10
M  V30 END BOND
M  V30 BEGIN COLLECTION
M  V30 MDLV30/STEABS ATOMS=(0)
M  V30 END COLLECTION
M  V30 END CTAB
M  END
$$$$

     RDKit          2D

  0  0  0  0  0  0  0  0  0  0999 V3000
M  V30 BEGIN CTAB
M  V30 COUNTS 18 18 0 0 0
M  V30 BEGIN ATOM
M  V30 1 R 0.000000 4.754828 0.000000 0 MASS=8 VAL=1
M  V30 2 C 1.299038 5.504828 0.000000 0
M  V30 3 C 2.598076 4.754828 0.000000 0
M  V30 4 O 1.299038 7.004828 0.000000 0
M  V30 5 R 3.525976 -1.299038 0.000000 0 MASS=11 VAL=1
M  V30 6 S 2.775976 0.000000 0.000000 0
M  V30 7 C 1.275976 0.000000 0.000000 0
M  V30 8 C 0.394298 1.213525 0.000000 0
M  V30 9 C 0.857824 2.640110 0.000000 0
M  V30 10 O -0.145872 3.754828 0.000000 0
M  V30 11 O 2.325045 2.951978 0.000000 0
M  V30 12 N -1.032286 0.750000 0.000000 0
M  V30 13 C -2.532286 0.750000 0.000000 0
M  V30 14 O -3.592947 1.810660 0.000000 0
M  V30 15 C -2.532286 -0.750000 0.000000 0
M  V30 16 R -3.592947 -1.810660 0.000000 0 MASS=15 VAL=1
M  V30 17 C -1.032286 -0.750000 0.000000 0
M  V30 18 C 0.394298 -1.213525 0.000000 0
M  V30 END ATOM
M  V30 BEGIN BOND
M  V30 1 1 2 1 CFG=3
M  V30 2 1 2 3
M  V30 3 1 2 4
M  V30 4 1 5 6
M  V30 5 1 6 7
M  V30 6 2 7 8
M  V30 7 1 8 9
M  V30 8 2 9 10
M  V30 9 1 9 11
M  V30 10 1 8 12
M  V30 11 1 12 13
M  V30 12 2 13 14
M  V30 13 1 13 15
M  V30 14 1 15 16 CFG=1
M  V30 15 1 15 17
M  V30 16 1 17 18 CFG=3
M  V30 17 1 18 7
M  V30 18 1 17 12
M  V30 END BOND
M  V30 BEGIN COLLECTION
M  V30 MDLV30/STEABS ATOMS=(0)
M  V30 END COLLECTION
M  V30 END CTAB
M  END
$$$$

     RDKit          2D

  0  0  0  0  0  0  0  0  0  0999 V3000
M  V30 BEGIN CTAB
M  V30 COUNTS 19 19 0 0 0
M  V30 BEGIN ATOM
M  V30 1 R 0.000000 4.794517 0.000000 0 MASS=8 VAL=1
M  V30 2 C 1.299038 5.544517 0.000000 0
M  V30 3 C 2.598076 4.794517 0.000000 0
M  V30 4 O 1.299038 7.044517 0.000000 0
M  V30 5 R 3.000000 0.000000 0.000000 0 MASS=13 VAL=1
M  V30 6 C 1.500000 0.000000 0.000000 0
M  V30 7 C 0.750000 -1.299038 0.000000 0
M  V30 8 C -0.750000 -1.299038 0.000000 0
M  V30 9 C -1.500000 0.000000 0.000000 0
M  V30 10 C -0.750000 1.299038 0.000000 0
M  V30 11 N 0.750000 1.299038 0.000000 0
M  V30 12 C -0.364717 2.302734 0.000000 0
M  V30 13 O -0.207925 3.794517 0.000000 0
M  V30 14 N -1.663755 1.552734 0.000000 0
M  V30 15 O -3.034074 2.162839 0.000000 0
M  V30 16 S -4.247599 1.281161 0.000000 0
M  V30 17 O -5.129277 2.494687 0.000000 0
M  V30 18 O -3.365921 0.067636 0.000000 0
M  V30 19 O -5.461125 0.399483 0.000000 0
M  V30 END ATOM
M  V30 BEGIN BOND
M  V30 1 1 2 1 CFG=3
M  V30 2 1 2 3
M  V30 3 1 2 4
M  V30 4 1 6 5 CFG=3
M  V30 5 1 6 7
M  V30 6 1 7 8
M  V30 7 1 9 8 CFG=1
M  V30 8 1 9 10
M  V30 9 1 10 11
M  V30 10 1 11 12
M  V30 11 2 12 13
M  V30 12 1 12 14
M  V30 13 1 14 15
M  V30 14 1 15 16
M  V30 15 2 16 17
M  V30 16 2 16 18
M  V30 17 1 16 19
M  V30 18 1 11 6
M  V30 19 1 14 9
M  V30 END BOND
M  V30 BEGIN COLLECTION
M  V30 MDLV30/STEABS ATOMS=(0)
M  V30 END COLLECTION
M  V30 END CTAB
M  END
$$$$

     RDKit          2D

  0  0  0  0  0  0  0  0  0  0999 V3000
M  V30 BEGIN CTAB
M  V30 COUNTS 11 10 0 0 0
M  V30 BEGIN ATOM
M  V30 1 R 0.000000 2.631678 0.000000 0 MASS=8 VAL=1
M  V30 2 C 1.299038 3.381678 0.000000 0
M  V30 3 C 2.598076 2.631678 0.000000 0
M  V30 4 O 1.299038 4.881678 0.000000 0
M  V30 5 R 2.775976 0.000000 0.000000 0 MASS=13 VAL=1
M  V30 6 C 1.275976 0.000000 0.000000 0
M  V30 7 C 0.394298 1.213525 0.000000 0
M  V30 8 C -1.032286 0.750000 0.000000 0
M  V30 9 R -2.245812 1.631678 0.000000 0 MASS=15 VAL=1
M  V30 10 C -1.032286 -0.750000 0.000000 0
M  V30 11 N 0.394298 -1.213525 0.000000 0
M  V30 END ATOM
M  V30 BEGIN BOND
M  V30 1 1 2 1 CFG=3
M  V30 2 1 2 3
M  V30 3 1 2 4
M  V30 4 1 6 5 CFG=1
M  V30 5 1 6 7
M  V30 6 1 7 8
M  V30 7 1 8 9 CFG=1
M  V30 8 1 8 10
M  V30 9 1 10 11
M  V30 10 1 11 6
M  V30 END BOND
M  V30 BEGIN COLLECTION
M  V30 MDLV30/STEABS ATOMS=(0)
M  V30 END COLLECTION
M  V30 END CTAB
M  END
$$$$

     RDKit          2D

  0  0  0  0  0  0  0  0  0  0999 V3000
M  V30 BEGIN CTAB
M  V30 COUNTS 8 6 0 0 0
M  V30 BEGIN ATOM
M  V30 1 R 0.000000 0.000000 0.000000 0 MASS=8 VAL=1
M  V30 2 C 1.299038 0.750000 0.000000 0
M  V30 3 C 2.598076 -0.000000 0.000000 0
M  V30 4 O 1.299038 2.250000 0.000000 0
M  V30 5 R 0.000000 3.250000 0.000000 0 MASS=8 VAL=1
M  V30 6 C 1.299038 4.000000 0.000000 0
M  V30 7 C 2.598076 3.250000 0.000000 0
M  V30 8 O 1.299038 5.500000 0.000000 0
M  V30 END ATOM
M  V30 BEGIN BOND
M  V30 1 1 2 1 CFG=3
M  V30 2 1 2 3
M  V30 3 1 2 4
M  V30 4 1 6 5 CFG=3
M  V30 5 1 6 7
M  V30 6 1 6 8
M  V30 END BOND
M  V30 BEGIN COLLECTION
M  V30 MDLV30/STEABS ATOMS=(0)
M  V30 END COLLECTION
M  V30 END CTAB
M  END
$$$$
