REMARK  Name = 88718442
REMARK  15 active torsions:
REMARK  status: ('A' for Active; 'I' for Inactive)
REMARK    1  A    between atoms: S_2  and  N_14
REMARK    2  A    between atoms: S_2  and  C_29
REMARK    3  A    between atoms: O_5  and  C_22
REMARK    4  A    between atoms: O_8  and  N_11
REMARK    5  A    between atoms: O_8  and  C_33
REMARK    6  A    between atoms: N_10  and  CA_17
REMARK    7  A    between atoms: N_12  and  C_29
REMARK    8  A    between atoms: CA_19  and  C_22
REMARK    9  A    between atoms: C_21  and  C_23
REMARK   10  A    between atoms: C_24  and  C_27
REMARK   11  A    between atoms: C_25  and  C_26
REMARK   12  A    between atoms: C_26  and  C_28
REMARK   13  A    between atoms: C_27  and  C_30
REMARK   14  A    between atoms: C_28  and  C_29
REMARK   15  A    between atoms: C_33  and  C_39
REMARK                            x       y       z     vdW  Elec       q    Type
REMARK                         _______ _______ _______ _____ _____    ______ ____
ROOT
ATOM      1  S   UNL     1      -0.229   0.391  -2.870  0.00  0.00    +0.000 S 
ATOM      2  O   UNL     1       0.082   1.723   1.582  0.00  0.00    +0.000 OA
ATOM      3  N   UNL     1      -0.448   0.304  -0.226  0.00  0.00    +0.000 N 
ATOM      4  C   UNL     1       0.550   0.104  -1.263  0.00  0.00    +0.000 C 
ATOM      5  CA  UNL     1       1.297   1.311  -0.643  0.00  0.00    +0.000 C 
ATOM      6  C   UNL     1       0.255   1.194   0.509  0.00  0.00    +0.000 C 
ATOM      7  CA  UNL     1      -1.646  -0.338  -0.196  0.00  0.00    +0.000 C 
ATOM      8  C   UNL     1      -1.433  -0.966  -2.651  0.00  0.00    +0.000 C 
ATOM      9  C   UNL     1      -2.126  -0.979  -1.289  0.00  0.00    +0.000 C 
ENDROOT
BRANCH   5  11
ATOM     10  O   UNL     1       3.665   0.987  -2.368  0.00  0.00    +0.000 OA
ATOM     11  N   UNL     1       2.668   1.025  -0.242  0.00  0.00    +0.000 N 
ATOM     12  C   UNL     1       3.708   0.893  -1.151  0.00  0.00    +0.000 C 
ATOM     13  H   UNL     1       0.000   0.000   0.000  0.00  0.00    +0.000 HD
BRANCH  12  15
ATOM     14  N   UNL     1       5.817   1.579  -0.148  0.00  0.00    +0.000 NA
ATOM     15  C   UNL     1       5.034   0.604  -0.500  0.00  0.00    +0.000 C 
BRANCH  15  19
ATOM     16  S   UNL     1       5.692  -3.325  -0.491  0.00  0.00    +0.000 S 
ATOM     17  N   UNL     1       6.240  -1.149   0.792  0.00  0.00    +0.000 NA
ATOM     18  N   UNL     1       7.200  -3.114   1.690  0.00  0.00    +0.000 N 
ATOM     19  C   UNL     1       5.430  -0.812  -0.275  0.00  0.00    +0.000 A 
ATOM     20  C   UNL     1       5.032  -1.857  -1.082  0.00  0.00    +0.000 A 
ATOM     21  C   UNL     1       6.444  -2.447   0.777  0.00  0.00    +0.000 A 
ATOM     22  H   UNL     1       0.000   0.000   0.000  0.00  0.00    +0.000 HD
ATOM     23  H   UNL     1       0.000   0.000   0.000  0.00  0.00    +0.000 HD
ENDBRANCH  15  19
BRANCH  14  24
ATOM     24  O   UNL     1       7.003   1.108   0.433  0.00  0.00    +0.000 OA
BRANCH  24  25
ATOM     25  C   UNL     1       7.797   2.231   0.786  0.00  0.00    +0.000 C 
BRANCH  25  26
ATOM     26  C   UNL     1       9.065   1.746   1.406  0.00  0.00    +0.000 C 
ATOM     27  C   UNL     1      10.283   2.008   0.920  0.00  0.00    +0.000 C 
ENDBRANCH  25  26
ENDBRANCH  24  25
ENDBRANCH  14  24
ENDBRANCH  12  15
ENDBRANCH   5  11
BRANCH   7  29
ATOM     28  OXT UNL     1      -3.497   0.256   1.172  0.00  0.00    +0.000 OA
ATOM     29  C   UNL     1      -2.403  -0.257   1.066  0.00  0.00    +0.000 C 
BRANCH  29  30
ATOM     30  O   UNL     1      -1.688  -0.834   2.051  0.00  0.00    +0.000 OA
ATOM     31  H   UNL     1       0.000   0.000   0.000  0.00  0.00    +0.000 HD
ENDBRANCH  29  30
ENDBRANCH   7  29
BRANCH   9  32
ATOM     32  C   UNL     1      -3.361  -1.740  -1.319  0.00  0.00    +0.000 C 
ATOM     33  C   UNL     1      -3.748  -2.528  -0.319  0.00  0.00    +0.000 C 
BRANCH  33  34
ATOM     34  C   UNL     1      -5.028  -3.315  -0.346  0.00  0.00    +0.000 C 
BRANCH  34  35
ATOM     35  C   UNL     1      -5.935  -3.033   0.863  0.00  0.00    +0.000 C 
BRANCH  35  36
ATOM     36  C   UNL     1      -6.317  -1.556   1.085  0.00  0.00    +0.000 C 
BRANCH  36  37
ATOM     37  N   UNL     1      -7.136  -1.461   2.295  0.00  0.00    +0.000 NA
ATOM     38  H   UNL     1       0.000   0.000   0.000  0.00  0.00    +0.000 HD
ATOM     39  H   UNL     1       0.000   0.000   0.000  0.00  0.00    +0.000 HD
ENDBRANCH  36  37
BRANCH  36  40
ATOM     40  S   UNL     1      -7.239  -0.892  -0.362  0.00  0.00    +0.000 S 
BRANCH  40  41
ATOM     41  N   UNL     1      -7.010   0.865  -0.126  0.00  0.00    +0.000 N 
ATOM     42  C   UNL     1      -5.947   1.459  -0.684  0.00  0.00    +0.000 A 
ATOM     43  C   UNL     1      -7.909   1.540   0.603  0.00  0.00    +0.000 A 
ATOM     44  C   UNL     1      -5.744   2.821  -0.517  0.00  0.00    +0.000 A 
ATOM     45  C   UNL     1      -7.758   2.905   0.803  0.00  0.00    +0.000 A 
ATOM     46  C   UNL     1      -6.662   3.548   0.235  0.00  0.00    +0.000 A 
ENDBRANCH  40  41
ENDBRANCH  36  40
ENDBRANCH  35  36
ENDBRANCH  34  35
ENDBRANCH  33  34
ENDBRANCH   9  32
TORSDOF 15
