REMARK  Name = 44305758
REMARK  17 active torsions:
REMARK  status: ('A' for Active; 'I' for Inactive)
REMARK    1  A    between atoms: O_4  and  C_27
REMARK    2  A    between atoms: O_7  and  N_15
REMARK    3  A    between atoms: O_7  and  C_39
REMARK    4  A    between atoms: O_8  and  N_17
REMARK    5  A    between atoms: O_10  and  N_19
REMARK    6  A    between atoms: N_13  and  CA_21
REMARK    7  A    between atoms: N_14  and  C_26
REMARK    8  A    between atoms: N_17  and  C_36
REMARK    9  A    between atoms: N_19  and  C_41
REMARK   10  A    between atoms: CA_23  and  C_27
REMARK   11  A    between atoms: C_24  and  C_26
REMARK   12  A    between atoms: C_28  and  C_31
REMARK   13  A    between atoms: C_31  and  C_35
REMARK   14  A    between atoms: C_34  and  C_36
REMARK   15  A    between atoms: C_39  and  C_41
REMARK   16  A    between atoms: C_40  and  C_42
REMARK   17  A    between atoms: C_43  and  C_44
REMARK                            x       y       z     vdW  Elec       q    Type
REMARK                         _______ _______ _______ _____ _____    ______ ____
ROOT
ATOM      1  S   UNL     1      -0.375  -0.570  -0.846  0.00  0.00    +0.000 S 
ATOM      2  O   UNL     1      -1.851   2.406   2.407  0.00  0.00    +0.000 OA
ATOM      3  N   UNL     1      -0.277   1.190   1.139  0.00  0.00    +0.000 N 
ATOM      4  C   UNL     1      -0.505  -0.227   0.924  0.00  0.00    +0.000 C 
ATOM      5  CA  UNL     1      -1.927   0.016   1.474  0.00  0.00    +0.000 C 
ATOM      6  C   UNL     1      -1.411   1.438   1.831  0.00  0.00    +0.000 C 
ATOM      7  CA  UNL     1       0.816   1.857   0.688  0.00  0.00    +0.000 C 
ATOM      8  C   UNL     1       1.637   1.319  -0.245  0.00  0.00    +0.000 C 
ATOM      9  C   UNL     1       1.360  -0.013  -0.940  0.00  0.00    +0.000 C 
ENDROOT
BRANCH   5  11
ATOM     10  O   UNL     1      -4.802  -0.214   2.081  0.00  0.00    +0.000 OA
ATOM     11  N   UNL     1      -3.050   0.020   0.536  0.00  0.00    +0.000 N 
ATOM     12  C   UNL     1      -4.367  -0.096   0.947  0.00  0.00    +0.000 C 
ATOM     13  H   UNL     1       0.000   0.000   0.000  0.00  0.00    +0.000 HD
BRANCH  12  15
ATOM     14  N   UNL     1      -5.698  -1.161  -0.792  0.00  0.00    +0.000 NA
ATOM     15  C   UNL     1      -5.346  -0.061  -0.198  0.00  0.00    +0.000 C 
BRANCH  15  19
ATOM     16  S   UNL     1      -6.396   3.729  -0.834  0.00  0.00    +0.000 S 
ATOM     17  N   UNL     1      -6.794   1.319  -1.679  0.00  0.00    +0.000 NA
ATOM     18  N   UNL     1      -8.001   2.998  -2.826  0.00  0.00    +0.000 N 
ATOM     19  C   UNL     1      -5.893   1.252  -0.635  0.00  0.00    +0.000 A 
ATOM     20  C   UNL     1      -5.556   2.455  -0.051  0.00  0.00    +0.000 A 
ATOM     21  C   UNL     1      -7.128   2.575  -1.872  0.00  0.00    +0.000 A 
ATOM     22  H   UNL     1       0.000   0.000   0.000  0.00  0.00    +0.000 HD
ATOM     23  H   UNL     1       0.000   0.000   0.000  0.00  0.00    +0.000 HD
ENDBRANCH  15  19
BRANCH  14  24
ATOM     24  O   UNL     1      -5.064  -2.279  -0.233  0.00  0.00    +0.000 OA
BRANCH  24  25
ATOM     25  C   UNL     1      -4.907  -3.252  -1.253  0.00  0.00    +0.000 C 
BRANCH  25  26
ATOM     26  C   UNL     1      -4.222  -4.479  -0.679  0.00  0.00    +0.000 C 
BRANCH  26  28
ATOM     27  O   UNL     1      -3.276  -4.792   2.000  0.00  0.00    +0.000 OA
ATOM     28  N   UNL     1      -2.909  -4.167  -0.181  0.00  0.00    +0.000 N 
ATOM     29  C   UNL     1      -2.531  -4.347   1.126  0.00  0.00    +0.000 C 
ATOM     30  C   UNL     1      -1.108  -3.969   1.456  0.00  0.00    +0.000 C 
BRANCH  28  31
ATOM     31  O   UNL     1      -2.055  -3.659  -1.172  0.00  0.00    +0.000 OA
ATOM     32  H   UNL     1       0.000   0.000   0.000  0.00  0.00    +0.000 HD
ENDBRANCH  28  31
ENDBRANCH  26  28
ENDBRANCH  25  26
ENDBRANCH  24  25
ENDBRANCH  14  24
ENDBRANCH  12  15
ENDBRANCH   5  11
BRANCH   7  34
ATOM     33  OXT UNL     1       1.237   3.473   2.380  0.00  0.00    +0.000 OA
ATOM     34  C   UNL     1       1.033   3.214   1.211  0.00  0.00    +0.000 C 
BRANCH  34  35
ATOM     35  O   UNL     1       0.969   4.099   0.197  0.00  0.00    +0.000 OA
ATOM     36  H   UNL     1       0.000   0.000   0.000  0.00  0.00    +0.000 HD
ENDBRANCH  34  35
ENDBRANCH   7  34
BRANCH   8  37
ATOM     37  C   UNL     1       2.913   1.960  -0.737  0.00  0.00    +0.000 C 
BRANCH  37  38
ATOM     38  N   UNL     1       4.102   1.073  -0.525  0.00  0.00    +0.000 N 
ATOM     39  C   UNL     1       4.609   0.958   0.710  0.00  0.00    +0.000 A 
ATOM     40  C   UNL     1       4.621   0.425  -1.577  0.00  0.00    +0.000 A 
ATOM     41  C   UNL     1       5.710   0.144   0.936  0.00  0.00    +0.000 A 
ATOM     42  C   UNL     1       5.723  -0.402  -1.410  0.00  0.00    +0.000 A 
ATOM     43  C   UNL     1       6.270  -0.541  -0.138  0.00  0.00    +0.000 A 
BRANCH  43  44
ATOM     44  C   UNL     1       7.453  -1.423   0.072  0.00  0.00    +0.000 C 
BRANCH  44  46
ATOM     45  O   UNL     1       9.564   0.331   0.881  0.00  0.00    +0.000 OA
ATOM     46  N   UNL     1       8.591  -1.011  -0.711  0.00  0.00    +0.000 N 
ATOM     47  C   UNL     1       9.563  -0.163  -0.247  0.00  0.00    +0.000 C 
ATOM     48  C   UNL     1      10.679   0.143  -1.216  0.00  0.00    +0.000 C 
BRANCH  46  49
ATOM     49  O   UNL     1       8.597  -1.570  -1.997  0.00  0.00    +0.000 OA
ATOM     50  H   UNL     1       0.000   0.000   0.000  0.00  0.00    +0.000 HD
ENDBRANCH  46  49
ENDBRANCH  44  46
ENDBRANCH  43  44
ENDBRANCH  37  38
ENDBRANCH   8  37
TORSDOF 15
