REMARK  Name = 59731823
REMARK  15 active torsions:
REMARK  status: ('A' for Active; 'I' for Inactive)
REMARK    1  A    between atoms: O_5  and  C_31
REMARK    2  A    between atoms: O_8  and  N_16
REMARK    3  A    between atoms: O_8  and  C_42
REMARK    4  A    between atoms: O_9  and  C_44
REMARK    5  A    between atoms: N_12  and  CA_20
REMARK    6  A    between atoms: N_14  and  C_29
REMARK    7  A    between atoms: N_15  and  C_30
REMARK    8  A    between atoms: N_15  and  C_33
REMARK    9  A    between atoms: CA_22  and  C_31
REMARK   10  A    between atoms: C_23  and  C_29
REMARK   11  A    between atoms: C_24  and  C_30
REMARK   12  A    between atoms: C_32  and  C_38
REMARK   13  A    between atoms: C_38  and  C_39
REMARK   14  A    between atoms: C_42  and  C_43
REMARK   15  A    between atoms: C_42  and  C_44
REMARK                            x       y       z     vdW  Elec       q    Type
REMARK                         _______ _______ _______ _____ _____    ______ ____
ROOT
ATOM      1  S   UNL     1      -0.384   0.690   0.996  0.00  0.00    +0.000 S 
ATOM      2  O   UNL     1      -1.928  -1.259  -2.932  0.00  0.00    +0.000 OA
ATOM      3  N   UNL     1      -0.341  -0.637  -1.303  0.00  0.00    +0.000 N 
ATOM      4  C   UNL     1      -0.349   0.728  -0.810  0.00  0.00    +0.000 C 
ATOM      5  CA  UNL     1      -1.712   0.874  -1.521  0.00  0.00    +0.000 C 
ATOM      6  C   UNL     1      -1.405  -0.524  -2.127  0.00  0.00    +0.000 C 
ATOM      7  CA  UNL     1       0.560  -1.575  -0.912  0.00  0.00    +0.000 C 
ATOM      8  C   UNL     1       1.337  -1.397   0.182  0.00  0.00    +0.000 C 
ATOM      9  C   UNL     1       1.207  -0.197   1.118  0.00  0.00    +0.000 C 
ENDROOT
BRANCH   5  11
ATOM     10  O   UNL     1      -4.505   0.573  -2.413  0.00  0.00    +0.000 OA
ATOM     11  N   UNL     1      -2.927   0.904  -0.707  0.00  0.00    +0.000 N 
ATOM     12  C   UNL     1      -4.192   0.749  -1.246  0.00  0.00    +0.000 C 
ATOM     13  H   UNL     1       0.000   0.000   0.000  0.00  0.00    +0.000 HD
BRANCH  12  15
ATOM     14  N   UNL     1      -5.690  -0.274   0.378  0.00  0.00    +0.000 NA
ATOM     15  C   UNL     1      -5.285   0.810  -0.212  0.00  0.00    +0.000 C 
BRANCH  15  20
ATOM     16 CL   UNL     1      -7.702   1.179   2.030  0.00  0.00    +0.000 Cl
ATOM     17  S   UNL     1      -7.309   3.981   1.112  0.00  0.00    +0.000 S 
ATOM     18  N   UNL     1      -5.448   3.264  -0.533  0.00  0.00    +0.000 NA
ATOM     19  N   UNL     1      -5.937   5.577  -0.514  0.00  0.00    +0.000 N 
ATOM     20  C   UNL     1      -5.893   2.128   0.114  0.00  0.00    +0.000 A 
ATOM     21  C   UNL     1      -6.898   2.317   1.040  0.00  0.00    +0.000 A 
ATOM     22  C   UNL     1      -6.123   4.300  -0.087  0.00  0.00    +0.000 A 
ATOM     23  H   UNL     1       0.000   0.000   0.000  0.00  0.00    +0.000 HD
ATOM     24  H   UNL     1       0.000   0.000   0.000  0.00  0.00    +0.000 HD
ENDBRANCH  15  20
BRANCH  14  25
ATOM     25  O   UNL     1      -4.996  -1.403  -0.077  0.00  0.00    +0.000 OA
BRANCH  25  26
ATOM     26  C   UNL     1      -5.497  -2.537   0.614  0.00  0.00    +0.000 C 
ATOM     27  C   UNL     1      -5.152  -3.772  -0.200  0.00  0.00    +0.000 C 
BRANCH  26  29
ATOM     28  O   UNL     1      -4.014  -1.794   2.390  0.00  0.00    +0.000 OA
ATOM     29  C   UNL     1      -4.855  -2.585   1.985  0.00  0.00    +0.000 C 
BRANCH  29  30
ATOM     30  O   UNL     1      -5.335  -3.606   2.741  0.00  0.00    +0.000 OA
ATOM     31  H   UNL     1       0.000   0.000   0.000  0.00  0.00    +0.000 HD
ENDBRANCH  29  30
ENDBRANCH  26  29
ENDBRANCH  25  26
ENDBRANCH  14  25
ENDBRANCH  12  15
ENDBRANCH   5  11
BRANCH   7  33
ATOM     32  OXT UNL     1       0.348  -3.920  -1.241  0.00  0.00    +0.000 OA
ATOM     33  C   UNL     1       0.606  -2.822  -1.691  0.00  0.00    +0.000 C 
BRANCH  33  34
ATOM     34  O   UNL     1       0.974  -2.544  -2.957  0.00  0.00    +0.000 OA
ATOM     35  H   UNL     1       0.000   0.000   0.000  0.00  0.00    +0.000 HD
ENDBRANCH  33  34
ENDBRANCH   7  33
BRANCH   8  36
ATOM     36  C   UNL     1       2.415  -2.353   0.634  0.00  0.00    +0.000 C 
BRANCH  36  37
ATOM     37  N   UNL     1       3.754  -1.687   0.720  0.00  0.00    +0.000 N 
ATOM     38  C   UNL     1       6.195  -0.473   0.875  0.00  0.00    +0.000 A 
ATOM     39  C   UNL     1       4.423  -1.433  -0.413  0.00  0.00    +0.000 A 
ATOM     40  C   UNL     1       4.241  -1.366   1.927  0.00  0.00    +0.000 A 
ATOM     41  C   UNL     1       5.665  -0.818  -0.364  0.00  0.00    +0.000 A 
ATOM     42  C   UNL     1       5.478  -0.748   2.036  0.00  0.00    +0.000 A 
BRANCH  38  43
ATOM     43  N   UNL     1       7.455   0.154   0.956  0.00  0.00    +0.000 N 
ATOM     44  H   UNL     1       0.000   0.000   0.000  0.00  0.00    +0.000 HD
BRANCH  43  45
ATOM     45  C   UNL     1       8.243   0.467  -0.196  0.00  0.00    +0.000 C 
BRANCH  45  47
ATOM     46  N   UNL     1      10.302   1.609  -0.937  0.00  0.00    +0.000 NA
ATOM     47  C   UNL     1       9.530   1.155   0.221  0.00  0.00    +0.000 C 
ATOM     48  C   UNL     1       9.298   2.450   0.985  0.00  0.00    +0.000 C 
ATOM     49  C   UNL     1      10.562   3.264   0.736  0.00  0.00    +0.000 C 
ATOM     50  C   UNL     1      11.282   2.551  -0.401  0.00  0.00    +0.000 C 
ATOM     51  H   UNL     1       0.000   0.000   0.000  0.00  0.00    +0.000 HD
ENDBRANCH  45  47
ENDBRANCH  43  45
ENDBRANCH  38  43
ENDBRANCH  36  37
ENDBRANCH   8  36
TORSDOF 14
