REMARK  Name = 53712173
REMARK  16 active torsions:
REMARK  status: ('A' for Active; 'I' for Inactive)
REMARK    1  A    between atoms: O_4  and  C_24
REMARK    2  A    between atoms: O_7  and  N_14
REMARK    3  A    between atoms: O_7  and  C_39
REMARK    4  A    between atoms: O_8  and  C_34
REMARK    5  A    between atoms: O_8  and  C_41
REMARK    6  A    between atoms: N_12  and  CA_18
REMARK    7  A    between atoms: N_13  and  C_23
REMARK    8  A    between atoms: CA_20  and  C_24
REMARK    9  A    between atoms: C_21  and  C_23
REMARK   10  A    between atoms: C_25  and  C_26
REMARK   11  A    between atoms: C_26  and  C_29
REMARK   12  A    between atoms: C_34  and  C_36
REMARK   13  A    between atoms: C_34  and  C_37
REMARK   14  A    between atoms: C_34  and  C_38
REMARK   15  A    between atoms: C_39  and  C_40
REMARK   16  A    between atoms: C_41  and  C_42
REMARK                            x       y       z     vdW  Elec       q    Type
REMARK                         _______ _______ _______ _____ _____    ______ ____
ROOT
ATOM      1  O   UNL     1       0.616  -1.071  -3.044  0.00  0.00    +0.000 OA
ATOM      2  N   UNL     1       0.808  -1.620  -0.770  0.00  0.00    +0.000 N 
ATOM      3  C   UNL     1       0.194  -1.104  -1.899  0.00  0.00    +0.000 C 
ATOM      4  H   UNL     1       0.000   0.000   0.000  0.00  0.00    +0.000 HD
ENDROOT
BRANCH   2   9
ATOM      5  S   UNL     1       4.490  -1.542  -2.251  0.00  0.00    +0.000 S 
ATOM      6  O   UNL     1       2.404  -3.221   1.552  0.00  0.00    +0.000 OA
ATOM      7  N   UNL     1       3.807  -1.797   0.302  0.00  0.00    +0.000 N 
ATOM      8  C   UNL     1       3.297  -1.226  -0.931  0.00  0.00    +0.000 C 
ATOM      9  CA  UNL     1       2.133  -2.234  -0.802  0.00  0.00    +0.000 C 
ATOM     10  C   UNL     1       2.723  -2.543   0.604  0.00  0.00    +0.000 C 
ATOM     11  CA  UNL     1       5.037  -1.524   0.808  0.00  0.00    +0.000 C 
ATOM     12  C   UNL     1       5.994  -0.927   0.058  0.00  0.00    +0.000 C 
ATOM     13  C   UNL     1       5.819  -0.604  -1.424  0.00  0.00    +0.000 C 
BRANCH  11  15
ATOM     14  OXT UNL     1       6.153  -2.778   2.492  0.00  0.00    +0.000 OA
ATOM     15  C   UNL     1       5.305  -1.964   2.186  0.00  0.00    +0.000 C 
BRANCH  15  16
ATOM     16  O   UNL     1       4.470  -1.325   3.029  0.00  0.00    +0.000 OA
ATOM     17  H   UNL     1       0.000   0.000   0.000  0.00  0.00    +0.000 HD
ENDBRANCH  15  16
ENDBRANCH  11  15
BRANCH  12  18
ATOM     18  C   UNL     1       7.355  -0.518   0.570  0.00  0.00    +0.000 C 
BRANCH  18  19
ATOM     19  N   UNL     1       7.565   0.963   0.478  0.00  0.00    +0.000 N 
ATOM     20  C   UNL     1       6.722   1.777   1.126  0.00  0.00    +0.000 A 
ATOM     21  C   UNL     1       8.591   1.425  -0.250  0.00  0.00    +0.000 A 
ATOM     22  C   UNL     1       6.892   3.152   1.058  0.00  0.00    +0.000 A 
ATOM     23  C   UNL     1       8.810   2.791  -0.354  0.00  0.00    +0.000 A 
ATOM     24  C   UNL     1       7.949   3.660   0.309  0.00  0.00    +0.000 A 
ENDBRANCH  18  19
ENDBRANCH  12  18
ENDBRANCH   2   9
BRANCH   3  26
ATOM     25  N   UNL     1      -2.227  -1.276  -1.707  0.00  0.00    +0.000 NA
ATOM     26  C   UNL     1      -1.169  -0.528  -1.620  0.00  0.00    +0.000 C 
BRANCH  26  31
ATOM     27  S   UNL     1      -0.869   3.402  -1.040  0.00  0.00    +0.000 S 
ATOM     28  O   UNL     1      -4.641   2.025   1.425  0.00  0.00    +0.000 OA
ATOM     29  N   UNL     1      -2.298   1.339  -0.421  0.00  0.00    +0.000 NA
ATOM     30  N   UNL     1      -2.982   3.454   0.509  0.00  0.00    +0.000 N 
ATOM     31  C   UNL     1      -1.280   0.909  -1.250  0.00  0.00    +0.000 A 
ATOM     32  C   UNL     1      -0.406   1.882  -1.687  0.00  0.00    +0.000 A 
ATOM     33  C   UNL     1      -2.180   2.635  -0.242  0.00  0.00    +0.000 A 
ATOM     34  C   UNL     1      -4.119   3.119   1.268  0.00  0.00    +0.000 C 
ATOM     35  H   UNL     1       0.000   0.000   0.000  0.00  0.00    +0.000 HD
ENDBRANCH  26  31
BRANCH  25  36
ATOM     36  O   UNL     1      -3.396  -0.559  -1.417  0.00  0.00    +0.000 OA
BRANCH  36  37
ATOM     37  C   UNL     1      -4.498  -1.446  -1.536  0.00  0.00    +0.000 C 
BRANCH  37  38
ATOM     38  C   UNL     1      -5.768  -0.716  -1.233  0.00  0.00    +0.000 C 
ATOM     39  C   UNL     1      -6.603  -1.074  -0.249  0.00  0.00    +0.000 C 
BRANCH  39  41
ATOM     40  O   UNL     1      -8.201   0.672  -0.656  0.00  0.00    +0.000 OA
ATOM     41  C   UNL     1      -7.843  -0.303  -0.016  0.00  0.00    +0.000 C 
BRANCH  41  42
ATOM     42  O   UNL     1      -8.495  -0.879   1.030  0.00  0.00    +0.000 OA
BRANCH  42  43
ATOM     43  C   UNL     1      -9.730  -0.258   1.402  0.00  0.00    +0.000 C 
ATOM     44  C   UNL     1     -10.678  -0.307   0.205  0.00  0.00    +0.000 C 
ATOM     45  C   UNL     1      -9.445   1.186   1.812  0.00  0.00    +0.000 C 
ATOM     46  C   UNL     1     -10.306  -1.046   2.576  0.00  0.00    +0.000 C 
ENDBRANCH  42  43
ENDBRANCH  41  42
ENDBRANCH  39  41
ENDBRANCH  37  38
ENDBRANCH  36  37
ENDBRANCH  25  36
ENDBRANCH   3  26
TORSDOF 13
