REMARK  Name = 44137025
REMARK  15 active torsions:
REMARK  status: ('A' for Active; 'I' for Inactive)
REMARK    1  A    between atoms: S_2  and  C_24
REMARK    2  A    between atoms: S_2  and  C_37
REMARK    3  A    between atoms: O_6  and  C_30
REMARK    4  A    between atoms: O_9  and  N_16
REMARK    5  A    between atoms: O_9  and  C_41
REMARK    6  A    between atoms: O_10  and  C_46
REMARK    7  A    between atoms: N_13  and  CA_20
REMARK    8  A    between atoms: N_14  and  C_32
REMARK    9  A    between atoms: CA_22  and  C_30
REMARK   10  A    between atoms: C_31  and  C_38
REMARK   11  A    between atoms: C_32  and  C_36
REMARK   12  A    between atoms: C_38  and  C_40
REMARK   13  A    between atoms: C_41  and  C_44
REMARK   14  A    between atoms: C_41  and  C_45
REMARK   15  A    between atoms: C_41  and  C_46
REMARK                            x       y       z     vdW  Elec       q    Type
REMARK                         _______ _______ _______ _____ _____    ______ ____
ROOT
ATOM      1  S   UNL     1       0.499  -2.778  -0.134  0.00  0.00    +0.000 S 
ATOM      2  O   UNL     1      -0.464   0.405  -3.385  0.00  0.00    +0.000 OA
ATOM      3  N   UNL     1      -0.690  -1.626  -2.205  0.00  0.00    +0.000 N 
ATOM      4  C   UNL     1       0.507  -2.386  -1.896  0.00  0.00    +0.000 C 
ATOM      5  CA  UNL     1       1.297  -1.127  -2.318  0.00  0.00    +0.000 C 
ATOM      6  C   UNL     1      -0.078  -0.581  -2.801  0.00  0.00    +0.000 C 
ATOM      7  CA  UNL     1      -1.954  -2.027  -1.906  0.00  0.00    +0.000 C 
ATOM      8  C   UNL     1      -1.055  -3.733  -0.245  0.00  0.00    +0.000 C 
ATOM      9  C   UNL     1      -2.166  -3.035  -1.025  0.00  0.00    +0.000 C 
ENDROOT
BRANCH   5  11
ATOM     10  O   UNL     1       4.028  -0.020  -2.267  0.00  0.00    +0.000 OA
ATOM     11  N   UNL     1       1.919  -0.309  -1.278  0.00  0.00    +0.000 N 
ATOM     12  C   UNL     1       3.220   0.155  -1.369  0.00  0.00    +0.000 C 
ATOM     13  H   UNL     1       0.000   0.000   0.000  0.00  0.00    +0.000 HD
BRANCH  12  15
ATOM     14  N   UNL     1       4.178   0.411   0.854  0.00  0.00    +0.000 NA
ATOM     15  C   UNL     1       3.636   0.980  -0.180  0.00  0.00    +0.000 C 
BRANCH  15  19
ATOM     16  S   UNL     1       3.325   4.908   0.405  0.00  0.00    +0.000 S 
ATOM     17  N   UNL     1       2.824   3.042  -1.312  0.00  0.00    +0.000 NA
ATOM     18  N   UNL     1       2.199   5.221  -1.984  0.00  0.00    +0.000 N 
ATOM     19  C   UNL     1       3.409   2.450  -0.210  0.00  0.00    +0.000 A 
ATOM     20  C   UNL     1       3.750   3.300   0.821  0.00  0.00    +0.000 A 
ATOM     21  C   UNL     1       2.730   4.336  -1.099  0.00  0.00    +0.000 A 
ATOM     22  H   UNL     1       0.000   0.000   0.000  0.00  0.00    +0.000 HD
ATOM     23  H   UNL     1       0.000   0.000   0.000  0.00  0.00    +0.000 HD
ENDBRANCH  15  19
BRANCH  14  24
ATOM     24  O   UNL     1       4.294  -0.975   0.683  0.00  0.00    +0.000 OA
BRANCH  24  25
ATOM     25  C   UNL     1       4.892  -1.516   1.851  0.00  0.00    +0.000 C 
ATOM     26  C   UNL     1       3.979  -1.209   3.034  0.00  0.00    +0.000 C 
ATOM     27  C   UNL     1       6.275  -0.889   2.007  0.00  0.00    +0.000 C 
BRANCH  25  29
ATOM     28  O   UNL     1       4.661  -3.569   0.563  0.00  0.00    +0.000 OA
ATOM     29  C   UNL     1       4.991  -3.015   1.605  0.00  0.00    +0.000 C 
BRANCH  29  30
ATOM     30  O   UNL     1       5.487  -3.704   2.664  0.00  0.00    +0.000 OA
ATOM     31  H   UNL     1       0.000   0.000   0.000  0.00  0.00    +0.000 HD
ENDBRANCH  29  30
ENDBRANCH  25  29
ENDBRANCH  24  25
ENDBRANCH  14  24
ENDBRANCH  12  15
ENDBRANCH   5  11
BRANCH   7  33
ATOM     32  OXT UNL     1      -3.894  -0.655  -1.961  0.00  0.00    +0.000 OA
ATOM     33  C   UNL     1      -3.050  -1.287  -2.559  0.00  0.00    +0.000 C 
BRANCH  33  34
ATOM     34  O   UNL     1      -2.949  -1.434  -3.893  0.00  0.00    +0.000 OA
ATOM     35  H   UNL     1       0.000   0.000   0.000  0.00  0.00    +0.000 HD
ENDBRANCH  33  34
ENDBRANCH   7  33
BRANCH   9  36
ATOM     36  S   UNL     1      -3.780  -3.634  -0.661  0.00  0.00    +0.000 S 
BRANCH  36  40
ATOM     37  S   UNL     1      -5.637  -2.607   1.545  0.00  0.00    +0.000 S 
ATOM     38  N   UNL     1      -3.278  -1.647   1.103  0.00  0.00    +0.000 NA
ATOM     39  C   UNL     1      -3.822  -0.948   2.163  0.00  0.00    +0.000 A 
ATOM     40  C   UNL     1      -4.146  -2.546   0.697  0.00  0.00    +0.000 A 
ATOM     41  C   UNL     1      -5.092  -1.325   2.546  0.00  0.00    +0.000 A 
BRANCH  39  42
ATOM     42  C   UNL     1      -3.016   0.121   2.785  0.00  0.00    +0.000 C 
BRANCH  42  43
ATOM     43  N   UNL     1      -2.567   1.212   1.824  0.00  0.00    +0.000 N 
ATOM     44  C   UNL     1      -3.408   2.177   1.458  0.00  0.00    +0.000 A 
ATOM     45  C   UNL     1      -4.833   2.310   1.881  0.00  0.00    +0.000 C 
ATOM     46  C   UNL     1      -5.101   3.772   1.482  0.00  0.00    +0.000 C 
ATOM     47  C   UNL     1      -4.165   4.098   0.301  0.00  0.00    +0.000 C 
ATOM     48  C   UNL     1      -3.025   3.173   0.572  0.00  0.00    +0.000 A 
ATOM     49  C   UNL     1      -1.747   3.170   0.049  0.00  0.00    +0.000 A 
ATOM     50  C   UNL     1      -1.311   1.180   1.348  0.00  0.00    +0.000 A 
ATOM     51  C   UNL     1      -0.874   2.158   0.450  0.00  0.00    +0.000 A 
ENDBRANCH  42  43
ENDBRANCH  39  42
ENDBRANCH  36  40
ENDBRANCH   9  36
TORSDOF 13
