REMARK  Name = 54481001
REMARK  13 active torsions:
REMARK  status: ('A' for Active; 'I' for Inactive)
REMARK    1  A    between atoms: S_2  and  C_28
REMARK    2  A    between atoms: S_2  and  C_33
REMARK    3  A    between atoms: O_4  and  N_13
REMARK    4  A    between atoms: O_4  and  C_17
REMARK    5  A    between atoms: O_6  and  C_25
REMARK    6  A    between atoms: O_8  and  C_30
REMARK    7  A    between atoms: N_12  and  CA_22
REMARK    8  A    between atoms: N_15  and  C_40
REMARK    9  A    between atoms: C_17  and  C_25
REMARK   10  A    between atoms: CA_24  and  C_30
REMARK   11  A    between atoms: C_26  and  C_28
REMARK   12  A    between atoms: C_29  and  C_31
REMARK   13  A    between atoms: C_31  and  C_32
REMARK                            x       y       z     vdW  Elec       q    Type
REMARK                         _______ _______ _______ _____ _____    ______ ____
ROOT
ATOM      1  O   UNL     1       1.800  -0.081   2.816  0.00  0.00    +0.000 OA
ATOM      2  N   UNL     1       0.902  -0.452   0.679  0.00  0.00    +0.000 N 
ATOM      3  C   UNL     1       1.885  -0.128   1.599  0.00  0.00    +0.000 C 
ATOM      4  H   UNL     1       0.000   0.000   0.000  0.00  0.00    +0.000 HD
ENDROOT
BRANCH   2   9
ATOM      5  S   UNL     1      -1.072   1.859   0.261  0.00  0.00    +0.000 S 
ATOM      6  O   UNL     1      -1.112  -2.727  -0.502  0.00  0.00    +0.000 OA
ATOM      7  N   UNL     1      -2.024  -0.568  -0.238  0.00  0.00    +0.000 N 
ATOM      8  C   UNL     1      -1.581   0.241   0.883  0.00  0.00    +0.000 C 
ATOM      9  CA  UNL     1      -0.461  -0.806   1.071  0.00  0.00    +0.000 C 
ATOM     10  C   UNL     1      -1.223  -1.631  -0.004  0.00  0.00    +0.000 C 
ATOM     11  CA  UNL     1      -2.972  -0.172  -1.126  0.00  0.00    +0.000 C 
ATOM     12  C   UNL     1      -3.367   1.120  -1.210  0.00  0.00    +0.000 C 
ATOM     13  C   UNL     1      -2.727   2.248  -0.403  0.00  0.00    +0.000 C 
BRANCH  11  15
ATOM     14  OXT UNL     1      -3.384  -1.166  -3.246  0.00  0.00    +0.000 OA
ATOM     15  C   UNL     1      -3.501  -1.198  -2.038  0.00  0.00    +0.000 C 
BRANCH  15  16
ATOM     16  O   UNL     1      -4.124  -2.154  -1.321  0.00  0.00    +0.000 OA
ATOM     17  H   UNL     1       0.000   0.000   0.000  0.00  0.00    +0.000 HD
ENDBRANCH  15  16
ENDBRANCH  11  15
BRANCH  12  18
ATOM     18  C   UNL     1      -4.468   1.624  -2.112  0.00  0.00    +0.000 C 
BRANCH  18  19
ATOM     19  S   UNL     1      -5.755   2.389  -1.113  0.00  0.00    +0.000 S 
BRANCH  19  21
ATOM     20  N   UNL     1      -7.052  -1.042   1.532  0.00  0.00    +0.000 N 
ATOM     21  C   UNL     1      -6.268   1.028  -0.066  0.00  0.00    +0.000 A 
ATOM     22  C   UNL     1      -6.779  -0.136  -0.633  0.00  0.00    +0.000 A 
ATOM     23  C   UNL     1      -6.158   1.135   1.317  0.00  0.00    +0.000 A 
ATOM     24  C   UNL     1      -7.169  -1.172   0.203  0.00  0.00    +0.000 A 
ATOM     25  C   UNL     1      -6.564   0.066   2.104  0.00  0.00    +0.000 A 
ATOM     26  C   UNL     1      -7.471  -2.150   2.387  0.00  0.00    +0.000 C 
ENDBRANCH  19  21
ENDBRANCH  18  19
ENDBRANCH  12  18
ENDBRANCH   2   9
BRANCH   3  28
ATOM     27  N   UNL     1       4.079  -0.729   0.733  0.00  0.00    +0.000 NA
ATOM     28  C   UNL     1       3.206   0.206   0.958  0.00  0.00    +0.000 C 
BRANCH  28  32
ATOM     29  S   UNL     1       3.523   4.152   0.517  0.00  0.00    +0.000 S 
ATOM     30  N   UNL     1       4.307   1.905  -0.491  0.00  0.00    +0.000 NA
ATOM     31  N   UNL     1       5.128   3.836  -1.580  0.00  0.00    +0.000 N 
ATOM     32  C   UNL     1       3.487   1.618   0.584  0.00  0.00    +0.000 A 
ATOM     33  C   UNL     1       2.969   2.706   1.254  0.00  0.00    +0.000 A 
ATOM     34  C   UNL     1       4.397   3.210  -0.619  0.00  0.00    +0.000 A 
ATOM     35  H   UNL     1       0.000   0.000   0.000  0.00  0.00    +0.000 HD
ATOM     36  H   UNL     1       0.000   0.000   0.000  0.00  0.00    +0.000 HD
ENDBRANCH  28  32
BRANCH  27  37
ATOM     37  O   UNL     1       5.237  -0.224   0.127  0.00  0.00    +0.000 OA
BRANCH  37  38
ATOM     38  C   UNL     1       6.141  -1.323  -0.083  0.00  0.00    +0.000 C 
ATOM     39  C   UNL     1       6.768  -1.884   1.211  0.00  0.00    +0.000 C 
ATOM     40  C   UNL     1       7.565  -0.901  -0.499  0.00  0.00    +0.000 C 
ATOM     41  C   UNL     1       7.913  -0.871   1.004  0.00  0.00    +0.000 C 
BRANCH  38  43
ATOM     42  O   UNL     1       4.936  -3.422  -0.634  0.00  0.00    +0.000 OA
ATOM     43  C   UNL     1       5.468  -2.379  -1.004  0.00  0.00    +0.000 C 
BRANCH  43  44
ATOM     44  O   UNL     1       5.522  -2.027  -2.318  0.00  0.00    +0.000 OA
ATOM     45  H   UNL     1       0.000   0.000   0.000  0.00  0.00    +0.000 HD
ENDBRANCH  43  44
ENDBRANCH  38  43
ENDBRANCH  37  38
ENDBRANCH  27  37
ENDBRANCH   3  28
TORSDOF 12
