REMARK  Name = 145948210
REMARK  14 active torsions:
REMARK  status: ('A' for Active; 'I' for Inactive)
REMARK    1  A    between atoms: S_2  and  C_25
REMARK    2  A    between atoms: S_2  and  C_29
REMARK    3  A    between atoms: O_8  and  N_14
REMARK    4  A    between atoms: O_8  and  C_38
REMARK    5  A    between atoms: O_9  and  C_39
REMARK    6  A    between atoms: O_10  and  C_44
REMARK    7  A    between atoms: N_13  and  CA_20
REMARK    8  A    between atoms: N_15  and  C_36
REMARK    9  A    between atoms: CA_22  and  C_26
REMARK   10  A    between atoms: C_23  and  C_25
REMARK   11  A    between atoms: C_27  and  C_28
REMARK   12  A    between atoms: C_28  and  C_30
REMARK   13  A    between atoms: C_36  and  C_39
REMARK   14  A    between atoms: C_38  and  C_40
REMARK                            x       y       z     vdW  Elec       q    Type
REMARK                         _______ _______ _______ _____ _____    ______ ____
ROOT
ATOM      1  O   UNL     1      -4.816  -1.331   1.666  0.00  0.00    +0.000 OA
ATOM      2  N   UNL     1      -3.378  -1.360  -0.190  0.00  0.00    +0.000 N 
ATOM      3  C   UNL     1      -4.483  -0.965   0.550  0.00  0.00    +0.000 C 
ATOM      4  H   UNL     1       0.000   0.000   0.000  0.00  0.00    +0.000 HD
ENDROOT
BRANCH   2   9
ATOM      5  S   UNL     1      -0.787  -1.425  -1.929  0.00  0.00    +0.000 S 
ATOM      6  O   UNL     1      -1.738  -1.474   2.630  0.00  0.00    +0.000 OA
ATOM      7  N   UNL     1      -0.456  -1.788   0.681  0.00  0.00    +0.000 N 
ATOM      8  C   UNL     1      -1.058  -2.449  -0.462  0.00  0.00    +0.000 C 
ATOM      9  CA  UNL     1      -2.404  -2.328   0.298  0.00  0.00    +0.000 C 
ATOM     10  C   UNL     1      -1.540  -1.806   1.485  0.00  0.00    +0.000 C 
ATOM     11  CA  UNL     1       0.826  -1.342   0.725  0.00  0.00    +0.000 C 
ATOM     12  C   UNL     1       1.573  -1.241  -0.398  0.00  0.00    +0.000 C 
ATOM     13  C   UNL     1       1.031  -1.515  -1.797  0.00  0.00    +0.000 C 
BRANCH  11  16
ATOM     14  O   UNL     1       1.180   0.320   2.344  0.00  0.00    +0.000 OA
ATOM     15  OXT UNL     1       2.008  -1.782   2.705  0.00  0.00    +0.000 OA
ATOM     16  C   UNL     1       1.397  -0.888   2.063  0.00  0.00    +0.000 C 
ENDBRANCH  11  16
BRANCH  12  17
ATOM     17  C   UNL     1       3.026  -0.834  -0.418  0.00  0.00    +0.000 C 
BRANCH  17  18
ATOM     18  S   UNL     1       4.060  -2.302  -0.286  0.00  0.00    +0.000 S 
BRANCH  18  20
ATOM     19  N   UNL     1       8.218  -0.528  -0.394  0.00  0.00    +0.000 N 
ATOM     20  C   UNL     1       5.708  -1.599  -0.328  0.00  0.00    +0.000 A 
ATOM     21  C   UNL     1       6.595  -1.964  -1.337  0.00  0.00    +0.000 A 
ATOM     22  C   UNL     1       6.102  -0.687   0.646  0.00  0.00    +0.000 A 
ATOM     23  C   UNL     1       7.864  -1.404  -1.345  0.00  0.00    +0.000 A 
ATOM     24  C   UNL     1       7.384  -0.160   0.588  0.00  0.00    +0.000 A 
BRANCH  19  25
ATOM     25  C   UNL     1       9.561   0.044  -0.430  0.00  0.00    +0.000 C 
BRANCH  25  26
ATOM     26  C   UNL     1       9.701   1.128  -1.492  0.00  0.00    +0.000 C 
BRANCH  26  27
ATOM     27  O   UNL     1       8.801   2.193  -1.214  0.00  0.00    +0.000 OA
ATOM     28  H   UNL     1       0.000   0.000   0.000  0.00  0.00    +0.000 HD
ENDBRANCH  26  27
ENDBRANCH  25  26
ENDBRANCH  19  25
ENDBRANCH  18  20
ENDBRANCH  17  18
ENDBRANCH  12  17
ENDBRANCH   2   9
BRANCH   3  30
ATOM     29  N   UNL     1      -4.855   1.184  -0.530  0.00  0.00    +0.000 NA
ATOM     30  C   UNL     1      -5.348   0.040  -0.164  0.00  0.00    +0.000 C 
BRANCH  30  34
ATOM     31  S   UNL     1      -8.990  -1.516  -0.588  0.00  0.00    +0.000 S 
ATOM     32  N   UNL     1      -7.587   0.594  -1.099  0.00  0.00    +0.000 NA
ATOM     33  N   UNL     1      -9.835   0.682  -1.825  0.00  0.00    +0.000 N 
ATOM     34  C   UNL     1      -6.767  -0.305  -0.446  0.00  0.00    +0.000 A 
ATOM     35  C   UNL     1      -7.350  -1.504  -0.089  0.00  0.00    +0.000 A 
ATOM     36  C   UNL     1      -8.782   0.063  -1.228  0.00  0.00    +0.000 A 
ATOM     37  H   UNL     1       0.000   0.000   0.000  0.00  0.00    +0.000 HD
ATOM     38  H   UNL     1       0.000   0.000   0.000  0.00  0.00    +0.000 HD
ENDBRANCH  30  34
BRANCH  29  39
ATOM     39  O   UNL     1      -3.504   1.306  -0.177  0.00  0.00    +0.000 OA
BRANCH  39  40
ATOM     40  C   UNL     1      -3.047   2.577  -0.611  0.00  0.00    +0.000 C 
BRANCH  40  43
ATOM     41  O   UNL     1       0.629   4.351   1.996  0.00  0.00    +0.000 OA
ATOM     42  N   UNL     1      -0.693   2.071  -1.025  0.00  0.00    +0.000 N 
ATOM     43  C   UNL     1      -1.615   2.749  -0.256  0.00  0.00    +0.000 A 
ATOM     44  C   UNL     1      -1.228   3.529   0.771  0.00  0.00    +0.000 A 
ATOM     45  C   UNL     1       0.232   3.652   1.071  0.00  0.00    +0.000 A 
ATOM     46  C   UNL     1       0.651   2.155  -0.788  0.00  0.00    +0.000 A 
ATOM     47  C   UNL     1       1.180   2.892   0.199  0.00  0.00    +0.000 A 
ATOM     48  H   UNL     1       0.000   0.000   0.000  0.00  0.00    +0.000 HD
BRANCH  47  49
ATOM     49  O   UNL     1       2.532   2.969   0.428  0.00  0.00    +0.000 OA
ATOM     50  H   UNL     1       0.000   0.000   0.000  0.00  0.00    +0.000 HD
ENDBRANCH  47  49
ENDBRANCH  40  43
ENDBRANCH  39  40
ENDBRANCH  29  39
ENDBRANCH   3  30
TORSDOF 14
