REMARK  Name = 57278977
REMARK  12 active torsions:
REMARK  status: ('A' for Active; 'I' for Inactive)
REMARK    1  A    between atoms: S_2  and  C_22
REMARK    2  A    between atoms: S_2  and  C_27
REMARK    3  A    between atoms: O_5  and  C_23
REMARK    4  A    between atoms: O_8  and  N_12
REMARK    5  A    between atoms: O_8  and  C_32
REMARK    6  A    between atoms: N_11  and  CA_17
REMARK    7  A    between atoms: CA_19  and  C_23
REMARK    8  A    between atoms: C_20  and  C_22
REMARK    9  A    between atoms: C_24  and  C_25
REMARK   10  A    between atoms: C_25  and  C_26
REMARK   11  A    between atoms: C_29  and  C_31
REMARK   12  A    between atoms: C_32  and  C_35
REMARK                            x       y       z     vdW  Elec       q    Type
REMARK                         _______ _______ _______ _____ _____    ______ ____
ROOT
ATOM      1  S   UNL     1       0.875  -1.635  -2.121  0.00  0.00    +0.000 S 
ATOM      2  O   UNL     1      -0.340  -2.087   2.346  0.00  0.00    +0.000 OA
ATOM      3  N   UNL     1       0.665  -1.077   0.466  0.00  0.00    +0.000 N 
ATOM      4  C   UNL     1      -0.107  -0.969  -0.758  0.00  0.00    +0.000 C 
ATOM      5  CA  UNL     1      -1.111  -1.939  -0.098  0.00  0.00    +0.000 C 
ATOM      6  C   UNL     1      -0.263  -1.740   1.191  0.00  0.00    +0.000 C 
ATOM      7  CA  UNL     1       1.924  -0.589   0.611  0.00  0.00    +0.000 C 
ATOM      8  C   UNL     1       2.667  -0.221  -0.459  0.00  0.00    +0.000 C 
ATOM      9  C   UNL     1       2.211  -0.410  -1.904  0.00  0.00    +0.000 C 
ENDROOT
BRANCH   5  11
ATOM     10  O   UNL     1      -3.106  -1.655  -2.248  0.00  0.00    +0.000 OA
ATOM     11  N   UNL     1      -2.473  -1.418   0.000  0.00  0.00    +0.000 N 
ATOM     12  C   UNL     1      -3.322  -1.334  -1.091  0.00  0.00    +0.000 C 
ATOM     13  H   UNL     1       0.000   0.000   0.000  0.00  0.00    +0.000 HD
BRANCH  12  15
ATOM     14  N   UNL     1      -5.641  -1.561  -0.384  0.00  0.00    +0.000 NA
ATOM     15  C   UNL     1      -4.675  -0.770  -0.743  0.00  0.00    +0.000 C 
BRANCH  15  20
ATOM     16  S   UNL     1      -4.728   3.143  -1.487  0.00  0.00    +0.000 S 
ATOM     17  O   UNL     1      -7.851   2.451   1.973  0.00  0.00    +0.000 OA
ATOM     18  N   UNL     1      -5.789   1.323   0.011  0.00  0.00    +0.000 NA
ATOM     19  N   UNL     1      -6.542   3.587   0.351  0.00  0.00    +0.000 N 
ATOM     20  C   UNL     1      -4.883   0.700  -0.825  0.00  0.00    +0.000 A 
ATOM     21  C   UNL     1      -4.212   1.522  -1.705  0.00  0.00    +0.000 A 
ATOM     22  C   UNL     1      -5.791   2.612  -0.249  0.00  0.00    +0.000 A 
ATOM     23  C   UNL     1      -7.490   3.460   1.384  0.00  0.00    +0.000 C 
ATOM     24  H   UNL     1       0.000   0.000   0.000  0.00  0.00    +0.000 HD
ENDBRANCH  15  20
BRANCH  14  25
ATOM     25  O   UNL     1      -6.818  -0.851  -0.109  0.00  0.00    +0.000 OA
BRANCH  25  26
ATOM     26  C   UNL     1      -7.817  -1.784   0.273  0.00  0.00    +0.000 C 
BRANCH  26  27
ATOM     27  C   UNL     1      -9.078  -1.043   0.569  0.00  0.00    +0.000 C 
ATOM     28  C   UNL     1     -10.231  -1.241  -0.079  0.00  0.00    +0.000 C 
ENDBRANCH  26  27
ENDBRANCH  25  26
ENDBRANCH  14  25
ENDBRANCH  12  15
ENDBRANCH   5  11
BRANCH   7  30
ATOM     29  OXT UNL     1       3.440  -1.163   2.349  0.00  0.00    +0.000 OA
ATOM     30  C   UNL     1       2.467  -0.540   1.977  0.00  0.00    +0.000 C 
BRANCH  30  31
ATOM     31  O   UNL     1       1.719   0.294   2.726  0.00  0.00    +0.000 OA
ATOM     32  H   UNL     1       0.000   0.000   0.000  0.00  0.00    +0.000 HD
ENDBRANCH  30  31
ENDBRANCH   7  30
BRANCH   8  33
ATOM     33  C   UNL     1       4.039   0.405  -0.376  0.00  0.00    +0.000 C 
BRANCH  33  34
ATOM     34  S   UNL     1       5.288  -0.892  -0.394  0.00  0.00    +0.000 S 
BRANCH  34  35
ATOM     35  C   UNL     1       6.720   0.060  -0.292  0.00  0.00    +0.000 C 
ATOM     36  C   UNL     1       7.939  -0.498  -0.274  0.00  0.00    +0.000 C 
BRANCH  36  38
ATOM     37  N   UNL     1      10.457   2.260  -0.667  0.00  0.00    +0.000 NA
ATOM     38  C   UNL     1       9.205   0.250  -0.180  0.00  0.00    +0.000 A 
ATOM     39  C   UNL     1      10.315  -0.298   0.452  0.00  0.00    +0.000 A 
ATOM     40  C   UNL     1       9.326   1.521  -0.719  0.00  0.00    +0.000 A 
ATOM     41  C   UNL     1      11.497   0.432   0.526  0.00  0.00    +0.000 A 
ATOM     42  C   UNL     1      11.515   1.695  -0.044  0.00  0.00    +0.000 A 
ENDBRANCH  36  38
ENDBRANCH  34  35
ENDBRANCH  33  34
ENDBRANCH   8  33
TORSDOF 12
