REMARK  Name = 170454212
REMARK  11 active torsions:
REMARK  status: ('A' for Active; 'I' for Inactive)
REMARK    1  A    between atoms: O_4  and  C_32
REMARK    2  A    between atoms: O_5  and  C_33
REMARK    3  A    between atoms: O_9  and  N_14
REMARK    4  A    between atoms: N_10  and  C_18
REMARK    5  A    between atoms: N_13  and  CA_31
REMARK    6  A    between atoms: C_26  and  C_27
REMARK    7  A    between atoms: C_28  and  CA_31
REMARK    8  A    between atoms: CA_30  and  C_32
REMARK    9  A    between atoms: CA_31  and  C_33
REMARK   10  A    between atoms: C_34  and  C_35
REMARK   11  A    between atoms: C_35  and  C_36
REMARK                            x       y       z     vdW  Elec       q    Type
REMARK                         _______ _______ _______ _____ _____    ______ ____
ROOT
ATOM      1  S   UNL     1       3.603   1.351  -2.462  0.00  0.00    +0.000 S 
ATOM      2  N   UNL     1       2.805   2.268  -0.045  0.00  0.00    +0.000 N 
ATOM      3  C   UNL     1       1.000   1.416  -1.416  0.00  0.00    +0.000 C 
ATOM      4  C   UNL     1       3.914   1.594  -0.687  0.00  0.00    +0.000 C 
ATOM      5  C   UNL     1       1.921   0.668  -2.362  0.00  0.00    +0.000 C 
ATOM      6  CA  UNL     1       1.470   2.139  -0.373  0.00  0.00    +0.000 C 
ATOM      7  H   UNL     1       0.000   0.000   0.000  0.00  0.00    +0.000 HD
ENDROOT
BRANCH   3  14
ATOM      8  O   UNL     1      -3.243   0.934  -2.322  0.00  0.00    +0.000 OA
ATOM      9  N   UNL     1      -3.428   0.594  -0.000  0.00  0.00    +0.000 N 
ATOM     10  C   UNL     1      -2.543   0.522   1.142  0.00  0.00    +0.000 C 
ATOM     11  C   UNL     1      -1.181   0.987   0.647  0.00  0.00    +0.000 C 
ATOM     12  C   UNL     1      -2.779   0.861  -1.196  0.00  0.00    +0.000 C 
ATOM     13  C   UNL     1      -1.351   1.054  -0.837  0.00  0.00    +0.000 C 
ATOM     14  C   UNL     1      -0.399   1.240  -1.754  0.00  0.00    +0.000 C 
BRANCH   9  16
ATOM     15  N   UNL     1      -6.592  -0.376   1.492  0.00  0.00    +0.000 NA
ATOM     16  C   UNL     1      -4.828   0.314   0.130  0.00  0.00    +0.000 C 
ATOM     17  C   UNL     1      -5.673   1.553   0.386  0.00  0.00    +0.000 C 
ATOM     18  C   UNL     1      -5.148  -0.574   1.317  0.00  0.00    +0.000 C 
ATOM     19  C   UNL     1      -6.819   1.059   1.264  0.00  0.00    +0.000 C 
ATOM     20  H   UNL     1       0.000   0.000   0.000  0.00  0.00    +0.000 HD
ENDBRANCH   9  16
ENDBRANCH   3  14
BRANCH   6  22
ATOM     21  OXT UNL     1      -0.200   3.739   0.178  0.00  0.00    +0.000 OA
ATOM     22  C   UNL     1       0.560   2.867   0.535  0.00  0.00    +0.000 C 
BRANCH  22  23
ATOM     23  O   UNL     1       0.722   2.401   1.787  0.00  0.00    +0.000 OA
ATOM     24  H   UNL     1       0.000   0.000   0.000  0.00  0.00    +0.000 HD
ENDBRANCH  22  23
ENDBRANCH   6  22
BRANCH   4  25
ATOM     25  CA  UNL     1       4.203   0.272   0.015  0.00  0.00    +0.000 C 
BRANCH  25  27
ATOM     26  O   UNL     1       3.756  -2.631   0.269  0.00  0.00    +0.000 OA
ATOM     27  N   UNL     1       2.989  -0.412   0.366  0.00  0.00    +0.000 N 
ATOM     28  C   UNL     1       2.895  -1.787   0.455  0.00  0.00    +0.000 C 
ATOM     29  H   UNL     1       0.000   0.000   0.000  0.00  0.00    +0.000 HD
BRANCH  28  31
ATOM     30  N   UNL     1       1.193  -2.397   2.086  0.00  0.00    +0.000 NA
ATOM     31  C   UNL     1       1.514  -2.251   0.836  0.00  0.00    +0.000 C 
BRANCH  31  36
ATOM     32  S   UNL     1      -0.409  -3.164  -2.368  0.00  0.00    +0.000 S 
ATOM     33  N   UNL     1      -0.824  -2.350  -0.005  0.00  0.00    +0.000 NA
ATOM     34  N   UNL     1       0.961  -2.958  -1.429  0.00  0.00    +0.000 NA
ATOM     35  N   UNL     1      -2.806  -2.625  -1.295  0.00  0.00    +0.000 N 
ATOM     36  C   UNL     1       0.528  -2.532  -0.243  0.00  0.00    +0.000 A 
ATOM     37  C   UNL     1      -1.464  -2.666  -1.109  0.00  0.00    +0.000 A 
ATOM     38  H   UNL     1       0.000   0.000   0.000  0.00  0.00    +0.000 HD
ATOM     39  H   UNL     1       0.000   0.000   0.000  0.00  0.00    +0.000 HD
ENDBRANCH  31  36
BRANCH  30  40
ATOM     40  O   UNL     1      -0.129  -2.828   2.235  0.00  0.00    +0.000 OA
ATOM     41  H   UNL     1       0.000   0.000   0.000  0.00  0.00    +0.000 HD
ENDBRANCH  30  40
ENDBRANCH  28  31
ENDBRANCH  25  27
BRANCH  25  43
ATOM     42  OXT UNL     1       4.480   0.743   2.386  0.00  0.00    +0.000 OA
ATOM     43  C   UNL     1       4.978   0.506   1.292  0.00  0.00    +0.000 C 
BRANCH  43  44
ATOM     44  O   UNL     1       6.321   0.469   1.086  0.00  0.00    +0.000 OA
ATOM     45  H   UNL     1       0.000   0.000   0.000  0.00  0.00    +0.000 HD
ENDBRANCH  43  44
ENDBRANCH  25  43
ENDBRANCH   4  25
TORSDOF 11
