REMARK  Name = 53768372
REMARK  11 active torsions:
REMARK  status: ('A' for Active; 'I' for Inactive)
REMARK    1  A    between atoms: S_2  and  C_15
REMARK    2  A    between atoms: S_2  and  C_26
REMARK    3  A    between atoms: O_4  and  N_11
REMARK    4  A    between atoms: O_4  and  C_16
REMARK    5  A    between atoms: O_6  and  C_27
REMARK    6  A    between atoms: N_10  and  CA_19
REMARK    7  A    between atoms: N_12  and  C_24
REMARK    8  A    between atoms: CA_21  and  C_27
REMARK    9  A    between atoms: C_22  and  C_24
REMARK   10  A    between atoms: C_25  and  C_28
REMARK   11  A    between atoms: C_28  and  C_31
REMARK                            x       y       z     vdW  Elec       q    Type
REMARK                         _______ _______ _______ _____ _____    ______ ____
ROOT
ATOM      1  O   UNL     1      -2.757   2.853  -1.321  0.00  0.00    +0.000 OA
ATOM      2  N   UNL     1      -1.216   1.447  -0.245  0.00  0.00    +0.000 N 
ATOM      3  C   UNL     1      -2.469   1.869  -0.660  0.00  0.00    +0.000 C 
ATOM      4  H   UNL     1       0.000   0.000   0.000  0.00  0.00    +0.000 HD
ENDROOT
BRANCH   2   9
ATOM      5  S   UNL     1       2.139   3.093   1.092  0.00  0.00    +0.000 S 
ATOM      6  O   UNL     1       0.576   1.391  -2.945  0.00  0.00    +0.000 OA
ATOM      7  N   UNL     1       1.887   1.459  -0.986  0.00  0.00    +0.000 N 
ATOM      8  C   UNL     1       1.234   1.758   0.276  0.00  0.00    +0.000 C 
ATOM      9  CA  UNL     1       0.009   2.175  -0.567  0.00  0.00    +0.000 C 
ATOM     10  C   UNL     1       0.797   1.587  -1.773  0.00  0.00    +0.000 C 
ATOM     11  CA  UNL     1       3.208   1.169  -1.102  0.00  0.00    +0.000 C 
ATOM     12  C   UNL     1       4.079   1.420  -0.095  0.00  0.00    +0.000 C 
ATOM     13  C   UNL     1       3.685   2.129   1.198  0.00  0.00    +0.000 C 
BRANCH  11  15
ATOM     14  OXT UNL     1       3.746  -0.551  -2.652  0.00  0.00    +0.000 OA
ATOM     15  C   UNL     1       3.663   0.633  -2.394  0.00  0.00    +0.000 C 
BRANCH  15  16
ATOM     16  O   UNL     1       3.963   1.653  -3.221  0.00  0.00    +0.000 OA
ATOM     17  H   UNL     1       0.000   0.000   0.000  0.00  0.00    +0.000 HD
ENDBRANCH  15  16
ENDBRANCH  11  15
BRANCH  12  18
ATOM     18  C   UNL     1       5.544   1.053  -0.117  0.00  0.00    +0.000 C 
BRANCH  18  19
ATOM     19  N   UNL     1       5.894   0.082   0.969  0.00  0.00    +0.000 N 
ATOM     20  C   UNL     1       6.821   0.429   1.872  0.00  0.00    +0.000 A 
ATOM     21  C   UNL     1       5.268  -1.103   1.002  0.00  0.00    +0.000 A 
ATOM     22  C   UNL     1       7.165  -0.450   2.889  0.00  0.00    +0.000 A 
ATOM     23  C   UNL     1       5.572  -2.022   1.996  0.00  0.00    +0.000 A 
ATOM     24  C   UNL     1       6.531  -1.688   2.948  0.00  0.00    +0.000 A 
ENDBRANCH  18  19
ENDBRANCH  12  18
ENDBRANCH   2   9
BRANCH   3  26
ATOM     25  N   UNL     1      -3.590  -0.290  -0.559  0.00  0.00    +0.000 NA
ATOM     26  C   UNL     1      -3.579   0.960  -0.204  0.00  0.00    +0.000 C 
BRANCH  26  30
ATOM     27  S   UNL     1      -5.933   2.898   2.360  0.00  0.00    +0.000 S 
ATOM     28  N   UNL     1      -5.931   0.994   0.612  0.00  0.00    +0.000 NA
ATOM     29  N   UNL     1      -8.009   1.385   1.668  0.00  0.00    +0.000 N 
ATOM     30  C   UNL     1      -4.653   1.516   0.662  0.00  0.00    +0.000 A 
ATOM     31  C   UNL     1      -4.461   2.554   1.550  0.00  0.00    +0.000 A 
ATOM     32  C   UNL     1      -6.690   1.645   1.464  0.00  0.00    +0.000 A 
ATOM     33  H   UNL     1       0.000   0.000   0.000  0.00  0.00    +0.000 HD
ATOM     34  H   UNL     1       0.000   0.000   0.000  0.00  0.00    +0.000 HD
ENDBRANCH  26  30
BRANCH  25  35
ATOM     35  O   UNL     1      -4.695  -0.970  -0.032  0.00  0.00    +0.000 OA
BRANCH  35  37
ATOM     36  C   UNL     1      -3.879  -3.294   0.416  0.00  0.00    +0.000 C 
ATOM     37  C   UNL     1      -4.595  -2.342  -0.496  0.00  0.00    +0.000 C 
ATOM     38  C   UNL     1      -5.372  -3.359   0.287  0.00  0.00    +0.000 C 
BRANCH  36  39
ATOM     39  S   UNL     1      -2.881  -4.559  -0.237  0.00  0.00    +0.000 S 
BRANCH  39  40
ATOM     40  C   UNL     1      -1.363  -3.639  -0.446  0.00  0.00    +0.000 A 
ATOM     41  C   UNL     1      -0.429  -3.588   0.589  0.00  0.00    +0.000 A 
ATOM     42  C   UNL     1      -1.112  -2.971  -1.645  0.00  0.00    +0.000 A 
ATOM     43  C   UNL     1       0.755  -2.869   0.426  0.00  0.00    +0.000 A 
ATOM     44  C   UNL     1       0.073  -2.253  -1.808  0.00  0.00    +0.000 A 
ATOM     45  C   UNL     1       1.006  -2.201  -0.773  0.00  0.00    +0.000 A 
ENDBRANCH  39  40
ENDBRANCH  36  39
ENDBRANCH  35  37
ENDBRANCH  25  35
ENDBRANCH   3  26
TORSDOF 11
