REMARK  Name = 170454597
REMARK  15 active torsions:
REMARK  status: ('A' for Active; 'I' for Inactive)
REMARK    1  A    between atoms: O_4  and  C_25
REMARK    2  A    between atoms: O_7  and  N_14
REMARK    3  A    between atoms: O_7  and  C_33
REMARK    4  A    between atoms: O_9  and  C_41
REMARK    5  A    between atoms: N_12  and  CA_19
REMARK    6  A    between atoms: N_13  and  C_24
REMARK    7  A    between atoms: N_16  and  C_40
REMARK    8  A    between atoms: CA_21  and  C_25
REMARK    9  A    between atoms: C_22  and  C_24
REMARK   10  A    between atoms: C_26  and  C_27
REMARK   11  A    between atoms: C_27  and  C_30
REMARK   12  A    between atoms: C_33  and  C_36
REMARK   13  A    between atoms: C_33  and  C_37
REMARK   14  A    between atoms: C_33  and  C_38
REMARK   15  A    between atoms: C_40  and  C_41
REMARK                            x       y       z     vdW  Elec       q    Type
REMARK                         _______ _______ _______ _____ _____    ______ ____
ROOT
ATOM      1  O   UNL     1      -1.678   1.953  -2.739  0.00  0.00    +0.000 OA
ATOM      2  N   UNL     1      -0.755   0.194  -1.486  0.00  0.00    +0.000 N 
ATOM      3  C   UNL     1      -1.723   1.121  -1.847  0.00  0.00    +0.000 C 
ATOM      4  H   UNL     1       0.000   0.000   0.000  0.00  0.00    +0.000 HD
ENDROOT
BRANCH   2   9
ATOM      5  S   UNL     1       1.572   1.486   0.137  0.00  0.00    +0.000 S 
ATOM      6  O   UNL     1       0.983  -2.439  -2.298  0.00  0.00    +0.000 OA
ATOM      7  N   UNL     1       2.180  -0.711  -1.231  0.00  0.00    +0.000 N 
ATOM      8  C   UNL     1       1.777   0.666  -1.463  0.00  0.00    +0.000 C 
ATOM      9  CA  UNL     1       0.527   0.083  -2.168  0.00  0.00    +0.000 C 
ATOM     10  C   UNL     1       1.221  -1.297  -1.981  0.00  0.00    +0.000 C 
ATOM     11  CA  UNL     1       3.228  -1.073  -0.447  0.00  0.00    +0.000 C 
ATOM     12  C   UNL     1       3.819  -0.196   0.399  0.00  0.00    +0.000 C 
ATOM     13  C   UNL     1       3.310   1.224   0.624  0.00  0.00    +0.000 C 
BRANCH  11  15
ATOM     14  OXT UNL     1       3.623  -3.249   0.426  0.00  0.00    +0.000 OA
ATOM     15  C   UNL     1       3.656  -2.479  -0.513  0.00  0.00    +0.000 C 
BRANCH  15  16
ATOM     16  O   UNL     1       4.081  -2.759  -1.761  0.00  0.00    +0.000 OA
ATOM     17  H   UNL     1       0.000   0.000   0.000  0.00  0.00    +0.000 HD
ENDBRANCH  15  16
ENDBRANCH  11  15
BRANCH  12  18
ATOM     18  C   UNL     1       5.038  -0.500   1.236  0.00  0.00    +0.000 C 
BRANCH  18  19
ATOM     19  N   UNL     1       6.160   0.452   0.953  0.00  0.00    +0.000 N 
ATOM     20  C   UNL     1       6.420   1.426   1.837  0.00  0.00    +0.000 A 
ATOM     21  C   UNL     1       6.868   0.299  -0.174  0.00  0.00    +0.000 A 
ATOM     22  C   UNL     1       7.452   2.322   1.601  0.00  0.00    +0.000 A 
ATOM     23  C   UNL     1       7.912   1.166  -0.463  0.00  0.00    +0.000 A 
ATOM     24  C   UNL     1       8.204   2.187   0.437  0.00  0.00    +0.000 A 
ENDBRANCH  18  19
ENDBRANCH  12  18
ENDBRANCH   2   9
BRANCH   3  26
ATOM     25  N   UNL     1      -3.656  -0.047  -0.939  0.00  0.00    +0.000 NA
ATOM     26  C   UNL     1      -2.961   1.049  -0.994  0.00  0.00    +0.000 C 
BRANCH  26  30
ATOM     27  S   UNL     1      -3.334   4.408   1.115  0.00  0.00    +0.000 S 
ATOM     28  N   UNL     1      -4.701   2.484   0.060  0.00  0.00    +0.000 NA
ATOM     29  N   UNL     1      -5.977   4.121   1.191  0.00  0.00    +0.000 N 
ATOM     30  C   UNL     1      -3.368   2.249  -0.214  0.00  0.00    +0.000 A 
ATOM     31  C   UNL     1      -2.478   3.182   0.276  0.00  0.00    +0.000 A 
ATOM     32  C   UNL     1      -4.802   3.595   0.755  0.00  0.00    +0.000 A 
ATOM     33  H   UNL     1       0.000   0.000   0.000  0.00  0.00    +0.000 HD
ATOM     34  H   UNL     1       0.000   0.000   0.000  0.00  0.00    +0.000 HD
ENDBRANCH  26  30
BRANCH  25  35
ATOM     35  O   UNL     1      -4.764   0.081  -0.090  0.00  0.00    +0.000 OA
BRANCH  35  36
ATOM     36  C   UNL     1      -5.464  -1.153  -0.088  0.00  0.00    +0.000 C 
ATOM     37  C   UNL     1      -6.653  -0.990   0.855  0.00  0.00    +0.000 C 
ATOM     38  C   UNL     1      -5.925  -1.444  -1.516  0.00  0.00    +0.000 C 
BRANCH  36  41
ATOM     39  O   UNL     1      -4.162  -3.186  -0.271  0.00  0.00    +0.000 OA
ATOM     40  N   UNL     1      -4.048  -2.005   1.717  0.00  0.00    +0.000 N 
ATOM     41  C   UNL     1      -4.494  -2.226   0.424  0.00  0.00    +0.000 C 
ATOM     42  H   UNL     1       0.000   0.000   0.000  0.00  0.00    +0.000 HD
BRANCH  40  43
ATOM     43  C   UNL     1      -3.131  -2.891   2.398  0.00  0.00    +0.000 C 
BRANCH  43  45
ATOM     44  O   UNL     1      -0.753  -3.150   2.663  0.00  0.00    +0.000 OA
ATOM     45  C   UNL     1      -1.687  -2.522   2.180  0.00  0.00    +0.000 C 
BRANCH  45  46
ATOM     46  O   UNL     1      -1.519  -1.429   1.399  0.00  0.00    +0.000 OA
ATOM     47  H   UNL     1       0.000   0.000   0.000  0.00  0.00    +0.000 HD
ENDBRANCH  45  46
ENDBRANCH  43  45
ENDBRANCH  40  43
ENDBRANCH  36  41
ENDBRANCH  35  36
ENDBRANCH  25  35
ENDBRANCH   3  26
TORSDOF 13
