REMARK  Name = 46911586
REMARK  11 active torsions:
REMARK  status: ('A' for Active; 'I' for Inactive)
REMARK    1  A    between atoms: O_4  and  C_22
REMARK    2  A    between atoms: O_7  and  N_11
REMARK    3  A    between atoms: O_7  and  C_33
REMARK    4  A    between atoms: N_10  and  CA_17
REMARK    5  A    between atoms: N_12  and  C_27
REMARK    6  A    between atoms: CA_19  and  C_22
REMARK    7  A    between atoms: C_21  and  C_23
REMARK    8  A    between atoms: C_24  and  C_26
REMARK    9  A    between atoms: C_25  and  C_27
REMARK   10  A    between atoms: C_26  and  C_28
REMARK   11  A    between atoms: C_30  and  C_32
REMARK                            x       y       z     vdW  Elec       q    Type
REMARK                         _______ _______ _______ _____ _____    ______ ____
ROOT
ATOM      1  S   UNL     1      -1.903   1.419  -1.316  0.00  0.00    +0.000 S 
ATOM      2  O   UNL     1      -0.815  -3.022  -0.469  0.00  0.00    +0.000 OA
ATOM      3  N   UNL     1      -0.520  -0.847  -1.335  0.00  0.00    +0.000 N 
ATOM      4  C   UNL     1      -1.633  -0.220  -2.026  0.00  0.00    +0.000 C 
ATOM      5  CA  UNL     1      -2.503  -1.364  -1.462  0.00  0.00    +0.000 C 
ATOM      6  C   UNL     1      -1.157  -1.989  -0.996  0.00  0.00    +0.000 C 
ATOM      7  CA  UNL     1       0.706  -0.275  -1.201  0.00  0.00    +0.000 C 
ATOM      8  C   UNL     1      -0.239   2.013  -1.782  0.00  0.00    +0.000 C 
ATOM      9  C   UNL     1       0.893   1.046  -1.440  0.00  0.00    +0.000 C 
ENDROOT
BRANCH   5  11
ATOM     10  O   UNL     1      -5.429  -1.036  -1.579  0.00  0.00    +0.000 OA
ATOM     11  N   UNL     1      -3.422  -1.070  -0.363  0.00  0.00    +0.000 N 
ATOM     12  C   UNL     1      -4.788  -0.938  -0.545  0.00  0.00    +0.000 C 
ATOM     13  H   UNL     1       0.000   0.000   0.000  0.00  0.00    +0.000 HD
BRANCH  12  15
ATOM     14  N   UNL     1      -5.984  -1.611   1.466  0.00  0.00    +0.000 NA
ATOM     15  C   UNL     1      -5.527  -0.641   0.732  0.00  0.00    +0.000 C 
BRANCH  15  19
ATOM     16  S   UNL     1      -6.414   2.877   2.379  0.00  0.00    +0.000 S 
ATOM     17  N   UNL     1      -5.246   1.801   0.339  0.00  0.00    +0.000 NA
ATOM     18  N   UNL     1      -5.223   4.165   0.380  0.00  0.00    +0.000 N 
ATOM     19  C   UNL     1      -5.729   0.778   1.132  0.00  0.00    +0.000 A 
ATOM     20  C   UNL     1      -6.390   1.165   2.279  0.00  0.00    +0.000 A 
ATOM     21  C   UNL     1      -5.550   2.951   0.899  0.00  0.00    +0.000 A 
ATOM     22  H   UNL     1       0.000   0.000   0.000  0.00  0.00    +0.000 HD
ATOM     23  H   UNL     1       0.000   0.000   0.000  0.00  0.00    +0.000 HD
ENDBRANCH  15  19
BRANCH  14  24
ATOM     24  O   UNL     1      -5.694  -2.864   0.909  0.00  0.00    +0.000 OA
ATOM     25  C   UNL     1      -6.224  -3.861   1.768  0.00  0.00    +0.000 C 
ENDBRANCH  14  24
ENDBRANCH  12  15
ENDBRANCH   5  11
BRANCH   7  27
ATOM     26  OXT UNL     1       2.411  -0.995   0.291  0.00  0.00    +0.000 OA
ATOM     27  C   UNL     1       1.794  -1.155  -0.742  0.00  0.00    +0.000 C 
BRANCH  27  28
ATOM     28  O   UNL     1       1.981  -2.139  -1.642  0.00  0.00    +0.000 OA
ATOM     29  H   UNL     1       0.000   0.000   0.000  0.00  0.00    +0.000 HD
ENDBRANCH  27  28
ENDBRANCH   7  27
BRANCH   9  30
ATOM     30  C   UNL     1       2.179   1.717  -1.384  0.00  0.00    +0.000 C 
ATOM     31  C   UNL     1       3.301   1.170  -1.847  0.00  0.00    +0.000 C 
BRANCH  31  32
ATOM     32  C   UNL     1       4.623   1.864  -1.799  0.00  0.00    +0.000 C 
BRANCH  32  34
ATOM     33  O   UNL     1       5.098   1.986   1.030  0.00  0.00    +0.000 OA
ATOM     34  N   UNL     1       5.553   1.065  -1.050  0.00  0.00    +0.000 N 
ATOM     35  C   UNL     1       5.717   1.193   0.325  0.00  0.00    +0.000 C 
ATOM     36  H   UNL     1       0.000   0.000   0.000  0.00  0.00    +0.000 HD
BRANCH  35  38
ATOM     37  N   UNL     1       7.992  -1.754   0.894  0.00  0.00    +0.000 NA
ATOM     38  C   UNL     1       6.738   0.312   0.947  0.00  0.00    +0.000 A 
ATOM     39  C   UNL     1       7.389   0.686   2.118  0.00  0.00    +0.000 A 
ATOM     40  C   UNL     1       7.072  -0.907   0.380  0.00  0.00    +0.000 A 
ATOM     41  C   UNL     1       8.341  -0.159   2.677  0.00  0.00    +0.000 A 
ATOM     42  C   UNL     1       8.604  -1.357   2.032  0.00  0.00    +0.000 A 
ENDBRANCH  35  38
ENDBRANCH  32  34
ENDBRANCH  31  32
ENDBRANCH   9  30
TORSDOF 10
