REMARK  Name = 88339242
REMARK  13 active torsions:
REMARK  status: ('A' for Active; 'I' for Inactive)
REMARK    1  A    between atoms: S_2  and  C_25
REMARK    2  A    between atoms: S_2  and  C_30
REMARK    3  A    between atoms: O_6  and  C_26
REMARK    4  A    between atoms: O_9  and  N_13
REMARK    5  A    between atoms: O_9  and  C_35
REMARK    6  A    between atoms: N_12  and  CA_20
REMARK    7  A    between atoms: N_17  and  C_34
REMARK    8  A    between atoms: CA_22  and  C_26
REMARK    9  A    between atoms: C_23  and  C_25
REMARK   10  A    between atoms: C_27  and  C_28
REMARK   11  A    between atoms: C_28  and  C_29
REMARK   12  A    between atoms: C_32  and  C_34
REMARK   13  A    between atoms: C_36  and  C_37
REMARK                            x       y       z     vdW  Elec       q    Type
REMARK                         _______ _______ _______ _____ _____    ______ ____
ROOT
ATOM      1  S   UNL     1       1.460  -2.527  -2.359  0.00  0.00    +0.000 S 
ATOM      2  O   UNL     1       0.849  -2.722   2.253  0.00  0.00    +0.000 OA
ATOM      3  N   UNL     1       1.701  -1.906   0.211  0.00  0.00    +0.000 N 
ATOM      4  C   UNL     1       0.781  -1.708  -0.895  0.00  0.00    +0.000 C 
ATOM      5  CA  UNL     1      -0.239  -2.529  -0.067  0.00  0.00    +0.000 C 
ATOM      6  C   UNL     1       0.805  -2.417   1.084  0.00  0.00    +0.000 C 
ATOM      7  CA  UNL     1       3.021  -1.591   0.160  0.00  0.00    +0.000 C 
ATOM      8  C   UNL     1       3.645  -1.345  -1.016  0.00  0.00    +0.000 C 
ATOM      9  C   UNL     1       2.965  -1.494  -2.375  0.00  0.00    +0.000 C 
ENDROOT
BRANCH   5  11
ATOM     10  O   UNL     1      -2.862  -2.988  -1.329  0.00  0.00    +0.000 OA
ATOM     11  N   UNL     1      -1.495  -1.839   0.195  0.00  0.00    +0.000 N 
ATOM     12  C   UNL     1      -2.675  -2.144  -0.468  0.00  0.00    +0.000 C 
ATOM     13  H   UNL     1       0.000   0.000   0.000  0.00  0.00    +0.000 HD
BRANCH  12  15
ATOM     14  N   UNL     1      -4.599  -1.692   0.954  0.00  0.00    +0.000 NA
ATOM     15  C   UNL     1      -3.841  -1.300  -0.025  0.00  0.00    +0.000 C 
BRANCH  15  19
ATOM     16  S   UNL     1      -4.267   1.796  -2.495  0.00  0.00    +0.000 S 
ATOM     17  N   UNL     1      -4.690   1.040  -0.060  0.00  0.00    +0.000 NA
ATOM     18  N   UNL     1      -5.356   3.253  -0.555  0.00  0.00    +0.000 N 
ATOM     19  C   UNL     1      -4.110  -0.019  -0.732  0.00  0.00    +0.000 A 
ATOM     20  C   UNL     1      -3.809   0.202  -2.059  0.00  0.00    +0.000 A 
ATOM     21  C   UNL     1      -4.820   2.050  -0.891  0.00  0.00    +0.000 A 
ATOM     22  H   UNL     1       0.000   0.000   0.000  0.00  0.00    +0.000 HD
ATOM     23  H   UNL     1       0.000   0.000   0.000  0.00  0.00    +0.000 HD
ENDBRANCH  15  19
BRANCH  14  24
ATOM     24  O   UNL     1      -5.630  -0.778   1.212  0.00  0.00    +0.000 OA
ATOM     25  C   UNL     1      -6.406  -1.280   2.289  0.00  0.00    +0.000 C 
ENDBRANCH  14  24
ENDBRANCH  12  15
ENDBRANCH   5  11
BRANCH   7  27
ATOM     26  OXT UNL     1       4.682  -2.336   1.688  0.00  0.00    +0.000 OA
ATOM     27  C   UNL     1       3.756  -1.592   1.433  0.00  0.00    +0.000 C 
BRANCH  27  28
ATOM     28  O   UNL     1       3.240  -0.652   2.249  0.00  0.00    +0.000 OA
ATOM     29  H   UNL     1       0.000   0.000   0.000  0.00  0.00    +0.000 HD
ENDBRANCH  27  28
ENDBRANCH   7  27
BRANCH   8  30
ATOM     30  C   UNL     1       5.085  -0.909  -1.149  0.00  0.00    +0.000 C 
BRANCH  30  31
ATOM     31  S   UNL     1       5.151   0.693  -1.966  0.00  0.00    +0.000 S 
BRANCH  31  35
ATOM     32  S   UNL     1       2.778   2.553  -1.305  0.00  0.00    +0.000 S 
ATOM     33  N   UNL     1       4.562   1.893   0.413  0.00  0.00    +0.000 NA
ATOM     34  N   UNL     1       3.684   2.725   1.085  0.00  0.00    +0.000 NA
ATOM     35  C   UNL     1       4.204   1.720  -0.842  0.00  0.00    +0.000 A 
ATOM     36  C   UNL     1       2.709   3.140   0.305  0.00  0.00    +0.000 A 
BRANCH  36  37
ATOM     37  C   UNL     1       1.610   4.036   0.717  0.00  0.00    +0.000 C 
BRANCH  37  39
ATOM     38  O   UNL     1      -0.706   2.552  -0.213  0.00  0.00    +0.000 OA
ATOM     39  N   UNL     1       0.612   3.368   1.524  0.00  0.00    +0.000 N 
ATOM     40  C   UNL     1      -0.462   2.683   0.984  0.00  0.00    +0.000 C 
ATOM     41  C   UNL     1      -1.332   2.062   2.044  0.00  0.00    +0.000 C 
ATOM     42  H   UNL     1       0.000   0.000   0.000  0.00  0.00    +0.000 HD
ENDBRANCH  37  39
ENDBRANCH  36  37
ENDBRANCH  31  35
ENDBRANCH  30  31
ENDBRANCH   8  30
TORSDOF 11
