REMARK  Name = 88420547
REMARK  11 active torsions:
REMARK  status: ('A' for Active; 'I' for Inactive)
REMARK    1  A    between atoms: S_2  and  C_23
REMARK    2  A    between atoms: S_2  and  C_28
REMARK    3  A    between atoms: O_6  and  C_24
REMARK    4  A    between atoms: O_9  and  N_14
REMARK    5  A    between atoms: O_9  and  C_37
REMARK    6  A    between atoms: N_11  and  CA_18
REMARK    7  A    between atoms: N_12  and  C_33
REMARK    8  A    between atoms: CA_20  and  C_24
REMARK    9  A    between atoms: C_21  and  C_23
REMARK   10  A    between atoms: C_25  and  C_26
REMARK   11  A    between atoms: C_26  and  C_30
REMARK                            x       y       z     vdW  Elec       q    Type
REMARK                         _______ _______ _______ _____ _____    ______ ____
ROOT
ATOM      1  S   UNL     1      -0.057  -3.072   2.075  0.00  0.00    +0.000 S 
ATOM      2  O   UNL     1      -0.271  -2.492  -2.541  0.00  0.00    +0.000 OA
ATOM      3  N   UNL     1       0.571  -2.210  -0.356  0.00  0.00    +0.000 N 
ATOM      4  C   UNL     1      -0.364  -1.918   0.716  0.00  0.00    +0.000 C 
ATOM      5  CA  UNL     1      -1.481  -2.320  -0.280  0.00  0.00    +0.000 C 
ATOM      6  C   UNL     1      -0.342  -2.342  -1.343  0.00  0.00    +0.000 C 
ATOM      7  CA  UNL     1       1.917  -2.268  -0.188  0.00  0.00    +0.000 C 
ATOM      8  C   UNL     1       2.473  -2.353   1.045  0.00  0.00    +0.000 C 
ATOM      9  C   UNL     1       1.655  -2.492   2.327  0.00  0.00    +0.000 C 
ENDROOT
BRANCH   5  11
ATOM     10  O   UNL     1      -3.661  -1.493   1.523  0.00  0.00    +0.000 OA
ATOM     11  N   UNL     1      -2.486  -1.289  -0.500  0.00  0.00    +0.000 N 
ATOM     12  C   UNL     1      -3.472  -0.986   0.429  0.00  0.00    +0.000 C 
ATOM     13  H   UNL     1       0.000   0.000   0.000  0.00  0.00    +0.000 HD
BRANCH  12  15
ATOM     14  N   UNL     1      -5.469  -0.160  -0.692  0.00  0.00    +0.000 NA
ATOM     15  C   UNL     1      -4.393   0.118  -0.020  0.00  0.00    +0.000 C 
BRANCH  15  19
ATOM     16  S   UNL     1      -4.074   4.052   0.520  0.00  0.00    +0.000 S 
ATOM     17  N   UNL     1      -2.892   1.808   1.022  0.00  0.00    +0.000 NA
ATOM     18  N   UNL     1      -1.791   3.731   1.846  0.00  0.00    +0.000 N 
ATOM     19  C   UNL     1      -4.044   1.525   0.314  0.00  0.00    +0.000 A 
ATOM     20  C   UNL     1      -4.813   2.611  -0.046  0.00  0.00    +0.000 A 
ATOM     21  C   UNL     1      -2.806   3.110   1.189  0.00  0.00    +0.000 A 
ATOM     22  H   UNL     1       0.000   0.000   0.000  0.00  0.00    +0.000 HD
ATOM     23  H   UNL     1       0.000   0.000   0.000  0.00  0.00    +0.000 HD
ENDBRANCH  15  19
BRANCH  14  24
ATOM     24  O   UNL     1      -5.606  -1.539  -0.906  0.00  0.00    +0.000 OA
ATOM     25  C   UNL     1      -6.800  -1.754  -1.643  0.00  0.00    +0.000 C 
ENDBRANCH  14  24
ENDBRANCH  12  15
ENDBRANCH   5  11
BRANCH   7  27
ATOM     26  OXT UNL     1       3.465  -3.224  -1.718  0.00  0.00    +0.000 OA
ATOM     27  C   UNL     1       2.741  -2.300  -1.405  0.00  0.00    +0.000 C 
BRANCH  27  28
ATOM     28  O   UNL     1       2.561  -1.158  -2.097  0.00  0.00    +0.000 OA
ATOM     29  H   UNL     1       0.000   0.000   0.000  0.00  0.00    +0.000 HD
ENDBRANCH  27  28
ENDBRANCH   7  27
BRANCH   8  30
ATOM     30  C   UNL     1       3.958  -2.340   1.318  0.00  0.00    +0.000 C 
BRANCH  30  31
ATOM     31  S   UNL     1       4.356  -0.944   2.383  0.00  0.00    +0.000 S 
BRANCH  31  36
ATOM     32  S   UNL     1       4.931   1.087   0.243  0.00  0.00    +0.000 S 
ATOM     33  N   UNL     1       3.682   3.051  -1.321  0.00  0.00    +0.000 N 
ATOM     34  N   UNL     1       2.596   0.824   1.406  0.00  0.00    +0.000 NA
ATOM     35  C   UNL     1       3.770   2.472   0.030  0.00  0.00    +0.000 C 
ATOM     36  C   UNL     1       3.804   0.358   1.367  0.00  0.00    +0.000 C 
ATOM     37  C   UNL     1       2.461   1.821   0.463  0.00  0.00    +0.000 C 
ATOM     38  C   UNL     1       1.296   2.085  -0.154  0.00  0.00    +0.000 C 
ATOM     39  C   UNL     1       2.429   3.367  -1.838  0.00  0.00    +0.000 C 
ATOM     40  C   UNL     1       4.884   3.668  -1.872  0.00  0.00    +0.000 C 
ATOM     41  C   UNL     1       1.270   2.966  -1.298  0.00  0.00    +0.000 C 
ENDBRANCH  31  36
ENDBRANCH  30  31
ENDBRANCH   8  30
TORSDOF 9
