REMARK  Name = 53861323
REMARK  10 active torsions:
REMARK  status: ('A' for Active; 'I' for Inactive)
REMARK    1  A    between atoms: S_2  and  C_20
REMARK    2  A    between atoms: S_2  and  C_24
REMARK    3  A    between atoms: O_5  and  C_21
REMARK    4  A    between atoms: O_8  and  N_11
REMARK    5  A    between atoms: O_8  and  C_32
REMARK    6  A    between atoms: N_10  and  CA_16
REMARK    7  A    between atoms: CA_18  and  C_21
REMARK    8  A    between atoms: C_22  and  C_23
REMARK    9  A    between atoms: C_23  and  C_25
REMARK   10  A    between atoms: C_26  and  C_28
REMARK                            x       y       z     vdW  Elec       q    Type
REMARK                         _______ _______ _______ _____ _____    ______ ____
ROOT
ATOM      1  S   UNL     1       0.062   2.595   2.415  0.00  0.00    +0.000 S 
ATOM      2  O   UNL     1      -0.928   3.121  -2.105  0.00  0.00    +0.000 OA
ATOM      3  N   UNL     1       0.266   2.350  -0.221  0.00  0.00    +0.000 N 
ATOM      4  C   UNL     1      -0.487   1.798   0.891  0.00  0.00    +0.000 C 
ATOM      5  CA  UNL     1      -1.740   2.395   0.217  0.00  0.00    +0.000 C 
ATOM      6  C   UNL     1      -0.797   2.692  -0.983  0.00  0.00    +0.000 C 
ATOM      7  CA  UNL     1       1.626   2.388  -0.273  0.00  0.00    +0.000 C 
ATOM      8  C   UNL     1       1.773   1.982   2.236  0.00  0.00    +0.000 C 
ATOM      9  C   UNL     1       2.370   2.196   0.846  0.00  0.00    +0.000 C 
ENDROOT
BRANCH   5  11
ATOM     10  O   UNL     1      -3.610   1.117   2.102  0.00  0.00    +0.000 OA
ATOM     11  N   UNL     1      -2.787   1.419  -0.075  0.00  0.00    +0.000 N 
ATOM     12  C   UNL     1      -3.609   0.886   0.904  0.00  0.00    +0.000 C 
ATOM     13  H   UNL     1       0.000   0.000   0.000  0.00  0.00    +0.000 HD
BRANCH  12  15
ATOM     14  N   UNL     1      -5.785   0.314  -0.028  0.00  0.00    +0.000 NA
ATOM     15  C   UNL     1      -4.615  -0.095   0.361  0.00  0.00    +0.000 C 
BRANCH  15  19
ATOM     16  S   UNL     1      -3.207  -3.802   0.739  0.00  0.00    +0.000 S 
ATOM     17  N   UNL     1      -4.785  -2.342  -0.696  0.00  0.00    +0.000 NA
ATOM     18  N   UNL     1      -4.632  -4.606  -1.358  0.00  0.00    +0.000 N 
ATOM     19  C   UNL     1      -4.246  -1.534   0.286  0.00  0.00    +0.000 A 
ATOM     20  C   UNL     1      -3.370  -2.147   1.157  0.00  0.00    +0.000 A 
ATOM     21  C   UNL     1      -4.308  -3.558  -0.555  0.00  0.00    +0.000 A 
ATOM     22  H   UNL     1       0.000   0.000   0.000  0.00  0.00    +0.000 HD
ATOM     23  H   UNL     1       0.000   0.000   0.000  0.00  0.00    +0.000 HD
ENDBRANCH  15  19
BRANCH  14  24
ATOM     24  O   UNL     1      -6.577  -0.744  -0.493  0.00  0.00    +0.000 OA
ATOM     25  C   UNL     1      -7.830  -0.213  -0.895  0.00  0.00    +0.000 C 
ENDBRANCH  14  24
ENDBRANCH  12  15
ENDBRANCH   5  11
BRANCH   7  27
ATOM     26  OXT UNL     1       2.904   3.671  -1.812  0.00  0.00    +0.000 OA
ATOM     27  C   UNL     1       2.220   2.696  -1.588  0.00  0.00    +0.000 C 
BRANCH  27  28
ATOM     28  O   UNL     1       1.878   1.734  -2.464  0.00  0.00    +0.000 OA
ATOM     29  H   UNL     1       0.000   0.000   0.000  0.00  0.00    +0.000 HD
ENDBRANCH  27  28
ENDBRANCH   7  27
BRANCH   9  30
ATOM     30  S   UNL     1       4.129   2.185   0.811  0.00  0.00    +0.000 S 
BRANCH  30  31
ATOM     31  C   UNL     1       4.339   0.506   0.528  0.00  0.00    +0.000 C 
ATOM     32  C   UNL     1       5.556  -0.044   0.414  0.00  0.00    +0.000 C 
BRANCH  32  34
ATOM     33  N   UNL     1       5.124  -3.774   0.435  0.00  0.00    +0.000 NA
ATOM     34  C   UNL     1       5.813  -1.473   0.163  0.00  0.00    +0.000 A 
ATOM     35  C   UNL     1       6.933  -1.885  -0.551  0.00  0.00    +0.000 A 
ATOM     36  C   UNL     1       4.947  -2.449   0.631  0.00  0.00    +0.000 A 
ATOM     37  C   UNL     1       7.149  -3.241  -0.773  0.00  0.00    +0.000 A 
ATOM     38  C   UNL     1       6.223  -4.137  -0.264  0.00  0.00    +0.000 A 
ENDBRANCH  32  34
ENDBRANCH  30  31
ENDBRANCH   9  30
TORSDOF 9
