REMARK  Name = 118030835
REMARK  12 active torsions:
REMARK  status: ('A' for Active; 'I' for Inactive)
REMARK    1  A    between atoms: S_2  and  C_24
REMARK    2  A    between atoms: S_2  and  C_27
REMARK    3  A    between atoms: O_5  and  C_25
REMARK    4  A    between atoms: O_7  and  N_12
REMARK    5  A    between atoms: O_7  and  C_35
REMARK    6  A    between atoms: N_11  and  CA_18
REMARK    7  A    between atoms: N_11  and  C_23
REMARK    8  A    between atoms: CA_20  and  C_25
REMARK    9  A    between atoms: C_21  and  C_24
REMARK   10  A    between atoms: C_23  and  C_26
REMARK   11  A    between atoms: C_26  and  C_29
REMARK   12  A    between atoms: C_28  and  C_30
REMARK                            x       y       z     vdW  Elec       q    Type
REMARK                         _______ _______ _______ _____ _____    ______ ____
ROOT
ATOM      1  S   UNL     1      -0.927  -2.004  -1.692  0.00  0.00    +0.000 S 
ATOM      2  O   UNL     1      -2.160  -0.725   2.628  0.00  0.00    +0.000 OA
ATOM      3  N   UNL     1      -0.785  -1.638   0.943  0.00  0.00    +0.000 N 
ATOM      4  C   UNL     1      -1.374  -2.552  -0.025  0.00  0.00    +0.000 C 
ATOM      5  CA  UNL     1      -2.744  -2.168   0.590  0.00  0.00    +0.000 C 
ATOM      6  C   UNL     1      -1.915  -1.374   1.637  0.00  0.00    +0.000 C 
ATOM      7  CA  UNL     1       0.527  -1.283   0.954  0.00  0.00    +0.000 C 
ATOM      8  C   UNL     1       1.346  -1.550  -0.090  0.00  0.00    +0.000 C 
ATOM      9  C   UNL     1       0.864  -2.173  -1.396  0.00  0.00    +0.000 C 
ENDROOT
BRANCH   7  11
ATOM     10  OXT UNL     1       1.451   0.587   2.095  0.00  0.00    +0.000 OA
ATOM     11  C   UNL     1       1.007  -0.543   2.131  0.00  0.00    +0.000 C 
BRANCH  11  12
ATOM     12  O   UNL     1       0.873  -1.313   3.229  0.00  0.00    +0.000 OA
ATOM     13  H   UNL     1       0.000   0.000   0.000  0.00  0.00    +0.000 HD
ENDBRANCH  11  12
ENDBRANCH   7  11
BRANCH   5  14
ATOM     14  N   UNL     1      -3.525  -1.282  -0.267  0.00  0.00    +0.000 NA
ATOM     15  H   UNL     1       0.000   0.000   0.000  0.00  0.00    +0.000 HD
BRANCH  14  16
ATOM     16  C   UNL     1      -4.714  -0.830   0.448  0.00  0.00    +0.000 C 
BRANCH  16  18
ATOM     17  N   UNL     1      -6.331  -0.153  -1.320  0.00  0.00    +0.000 NA
ATOM     18  C   UNL     1      -5.435   0.178  -0.437  0.00  0.00    +0.000 C 
BRANCH  18  22
ATOM     19  S   UNL     1      -5.015   4.145  -0.575  0.00  0.00    +0.000 S 
ATOM     20  N   UNL     1      -4.141   2.030   0.626  0.00  0.00    +0.000 NA
ATOM     21  N   UNL     1      -3.165   4.063   1.334  0.00  0.00    +0.000 N 
ATOM     22  C   UNL     1      -5.092   1.627  -0.291  0.00  0.00    +0.000 A 
ATOM     23  C   UNL     1      -5.676   2.631  -1.034  0.00  0.00    +0.000 A 
ATOM     24  C   UNL     1      -4.018   3.337   0.564  0.00  0.00    +0.000 A 
ATOM     25  H   UNL     1       0.000   0.000   0.000  0.00  0.00    +0.000 HD
ATOM     26  H   UNL     1       0.000   0.000   0.000  0.00  0.00    +0.000 HD
ENDBRANCH  18  22
BRANCH  17  27
ATOM     27  O   UNL     1      -6.551  -1.536  -1.347  0.00  0.00    +0.000 OA
ATOM     28  C   UNL     1      -7.537  -1.807  -2.332  0.00  0.00    +0.000 C 
ENDBRANCH  17  27
ENDBRANCH  16  18
ENDBRANCH  14  16
ENDBRANCH   5  14
BRANCH   8  29
ATOM     29  C   UNL     1       2.829  -1.264  -0.113  0.00  0.00    +0.000 C 
BRANCH  29  30
ATOM     30  S   UNL     1       3.106   0.396  -0.751  0.00  0.00    +0.000 S 
BRANCH  30  35
ATOM     31  O   UNL     1       8.617   1.686  -0.267  0.00  0.00    +0.000 OA
ATOM     32  O   UNL     1       7.546  -0.248   1.260  0.00  0.00    +0.000 OA
ATOM     33  N   UNL     1       6.756   1.469  -1.650  0.00  0.00    +0.000 N 
ATOM     34  N   UNL     1       5.443   0.259   0.471  0.00  0.00    +0.000 NA
ATOM     35  C   UNL     1       4.854   0.451  -0.667  0.00  0.00    +0.000 C 
ATOM     36  C   UNL     1       5.588   0.671  -1.970  0.00  0.00    +0.000 C 
ATOM     37  C   UNL     1       5.965  -0.651  -2.624  0.00  0.00    +0.000 C 
ATOM     38  C   UNL     1       7.517   1.229  -0.531  0.00  0.00    +0.000 C 
ATOM     39  C   UNL     1       6.818   0.338   0.468  0.00  0.00    +0.000 C 
ATOM     40  H   UNL     1       0.000   0.000   0.000  0.00  0.00    +0.000 HD
ENDBRANCH  30  35
ENDBRANCH  29  30
ENDBRANCH   8  29
TORSDOF 10
