REMARK  Name = 88452727
REMARK  14 active torsions:
REMARK  status: ('A' for Active; 'I' for Inactive)
REMARK    1  A    between atoms: S_2  and  C_25
REMARK    2  A    between atoms: S_2  and  C_29
REMARK    3  A    between atoms: O_5  and  C_26
REMARK    4  A    between atoms: O_8  and  N_14
REMARK    5  A    between atoms: O_8  and  C_37
REMARK    6  A    between atoms: O_9  and  C_37
REMARK    7  A    between atoms: O_10  and  C_41
REMARK    8  A    between atoms: N_13  and  CA_20
REMARK    9  A    between atoms: N_16  and  C_38
REMARK   10  A    between atoms: CA_22  and  C_26
REMARK   11  A    between atoms: C_23  and  C_25
REMARK   12  A    between atoms: C_27  and  C_28
REMARK   13  A    between atoms: C_28  and  C_30
REMARK   14  A    between atoms: C_37  and  C_39
REMARK                            x       y       z     vdW  Elec       q    Type
REMARK                         _______ _______ _______ _____ _____    ______ ____
ROOT
ATOM      1  O   UNL     1       4.190   0.147   1.899  0.00  0.00    +0.000 OA
ATOM      2  N   UNL     1       2.879   1.317   0.341  0.00  0.00    +0.000 N 
ATOM      3  C   UNL     1       3.869   0.439   0.758  0.00  0.00    +0.000 C 
ATOM      4  H   UNL     1       0.000   0.000   0.000  0.00  0.00    +0.000 HD
ENDROOT
BRANCH   2   9
ATOM      5  S   UNL     1       0.430   2.642  -1.064  0.00  0.00    +0.000 S 
ATOM      6  O   UNL     1       1.132   0.276   2.885  0.00  0.00    +0.000 OA
ATOM      7  N   UNL     1       0.007   1.712   1.390  0.00  0.00    +0.000 N 
ATOM      8  C   UNL     1       0.767   2.748   0.710  0.00  0.00    +0.000 C 
ATOM      9  CA  UNL     1       2.035   2.056   1.271  0.00  0.00    +0.000 C 
ATOM     10  C   UNL     1       1.040   1.159   2.063  0.00  0.00    +0.000 C 
ATOM     11  CA  UNL     1      -1.329   1.527   1.237  0.00  0.00    +0.000 C 
ATOM     12  C   UNL     1      -2.018   2.120   0.233  0.00  0.00    +0.000 C 
ATOM     13  C   UNL     1      -1.356   2.952  -0.861  0.00  0.00    +0.000 C 
BRANCH  11  15
ATOM     14  OXT UNL     1      -2.540  -0.425   1.849  0.00  0.00    +0.000 OA
ATOM     15  C   UNL     1      -1.987   0.605   2.176  0.00  0.00    +0.000 C 
BRANCH  15  16
ATOM     16  O   UNL     1      -1.874   1.088   3.429  0.00  0.00    +0.000 OA
ATOM     17  H   UNL     1       0.000   0.000   0.000  0.00  0.00    +0.000 HD
ENDBRANCH  15  16
ENDBRANCH  11  15
BRANCH  12  18
ATOM     18  C   UNL     1      -3.514   2.030   0.049  0.00  0.00    +0.000 C 
BRANCH  18  19
ATOM     19  S   UNL     1      -3.904   0.601  -0.974  0.00  0.00    +0.000 S 
BRANCH  19  21
ATOM     20  N   UNL     1      -8.417   0.810  -1.194  0.00  0.00    +0.000 N 
ATOM     21  C   UNL     1      -5.693   0.685  -1.062  0.00  0.00    +0.000 A 
ATOM     22  C   UNL     1      -6.400  -0.272  -1.782  0.00  0.00    +0.000 A 
ATOM     23  C   UNL     1      -6.376   1.707  -0.409  0.00  0.00    +0.000 A 
ATOM     24  C   UNL     1      -7.784  -0.184  -1.832  0.00  0.00    +0.000 A 
ATOM     25  C   UNL     1      -7.761   1.745  -0.493  0.00  0.00    +0.000 A 
ATOM     26  C   UNL     1      -9.873   0.877  -1.266  0.00  0.00    +0.000 C 
ENDBRANCH  19  21
ENDBRANCH  18  19
ENDBRANCH  12  18
ENDBRANCH   2   9
BRANCH   3  28
ATOM     27  N   UNL     1       4.192  -1.319  -0.894  0.00  0.00    +0.000 NA
ATOM     28  C   UNL     1       4.614  -0.201  -0.383  0.00  0.00    +0.000 C 
BRANCH  28  32
ATOM     29  S   UNL     1       7.901   1.030  -2.266  0.00  0.00    +0.000 S 
ATOM     30  N   UNL     1       6.266   1.659  -0.365  0.00  0.00    +0.000 NA
ATOM     31  N   UNL     1       8.041   3.183  -0.710  0.00  0.00    +0.000 N 
ATOM     32  C   UNL     1       5.830   0.470  -0.915  0.00  0.00    +0.000 A 
ATOM     33  C   UNL     1       6.587  -0.027  -1.955  0.00  0.00    +0.000 A 
ATOM     34  C   UNL     1       7.351   2.048  -0.999  0.00  0.00    +0.000 A 
ATOM     35  H   UNL     1       0.000   0.000   0.000  0.00  0.00    +0.000 HD
ATOM     36  H   UNL     1       0.000   0.000   0.000  0.00  0.00    +0.000 HD
ENDBRANCH  28  32
BRANCH  27  37
ATOM     37  O   UNL     1       3.032  -1.777  -0.253  0.00  0.00    +0.000 OA
BRANCH  37  38
ATOM     38  C   UNL     1       2.253  -2.513  -1.194  0.00  0.00    +0.000 C 
BRANCH  38  41
ATOM     39  O   UNL     1      -2.504  -2.656  -0.551  0.00  0.00    +0.000 OA
ATOM     40  N   UNL     1       1.262  -3.835   0.557  0.00  0.00    +0.000 NA
ATOM     41  C   UNL     1       1.019  -2.998  -0.509  0.00  0.00    +0.000 C 
ATOM     42  C   UNL     1      -0.187  -2.602  -0.946  0.00  0.00    +0.000 C 
ATOM     43  C   UNL     1      -1.187  -4.111   0.830  0.00  0.00    +0.000 C 
ATOM     44  C   UNL     1      -1.395  -3.087  -0.248  0.00  0.00    +0.000 C 
ATOM     45  C   UNL     1       0.249  -4.347   1.181  0.00  0.00    +0.000 C 
BRANCH  43  46
ATOM     46  O   UNL     1      -1.825  -3.669   2.009  0.00  0.00    +0.000 OA
ATOM     47  H   UNL     1       0.000   0.000   0.000  0.00  0.00    +0.000 HD
ENDBRANCH  43  46
ENDBRANCH  38  41
BRANCH  38  48
ATOM     48  O   UNL     1       2.980  -3.608  -1.743  0.00  0.00    +0.000 OA
ATOM     49  H   UNL     1       0.000   0.000   0.000  0.00  0.00    +0.000 HD
ENDBRANCH  38  48
ENDBRANCH  37  38
ENDBRANCH  27  37
ENDBRANCH   3  28
TORSDOF 13
