REMARK  Name = 117607705
REMARK  12 active torsions:
REMARK  status: ('A' for Active; 'I' for Inactive)
REMARK    1  A    between atoms: S_2  and  C_25
REMARK    2  A    between atoms: S_2  and  C_30
REMARK    3  A    between atoms: O_5  and  C_26
REMARK    4  A    between atoms: O_8  and  N_13
REMARK    5  A    between atoms: O_8  and  C_35
REMARK    6  A    between atoms: N_12  and  CA_20
REMARK    7  A    between atoms: N_16  and  C_34
REMARK    8  A    between atoms: CA_22  and  C_26
REMARK    9  A    between atoms: C_23  and  C_25
REMARK   10  A    between atoms: C_27  and  C_28
REMARK   11  A    between atoms: C_28  and  C_29
REMARK   12  A    between atoms: C_33  and  C_36
REMARK                            x       y       z     vdW  Elec       q    Type
REMARK                         _______ _______ _______ _____ _____    ______ ____
ROOT
ATOM      1  S   UNL     1       0.930  -0.039   1.719  0.00  0.00    +0.000 S 
ATOM      2  O   UNL     1       1.581  -3.389  -1.450  0.00  0.00    +0.000 OA
ATOM      3  N   UNL     1       0.547  -2.294   0.364  0.00  0.00    +0.000 N 
ATOM      4  C   UNL     1       1.382  -1.767   1.431  0.00  0.00    +0.000 C 
ATOM      5  CA  UNL     1       2.590  -2.080   0.514  0.00  0.00    +0.000 C 
ATOM      6  C   UNL     1       1.546  -2.763  -0.416  0.00  0.00    +0.000 C 
ATOM      7  CA  UNL     1      -0.809  -2.217   0.353  0.00  0.00    +0.000 C 
ATOM      8  C   UNL     1      -1.481  -1.405   1.202  0.00  0.00    +0.000 C 
ATOM      9  C   UNL     1      -0.791  -0.442   2.164  0.00  0.00    +0.000 C 
ENDROOT
BRANCH   5  11
ATOM     10  O   UNL     1       5.185  -0.908   1.273  0.00  0.00    +0.000 OA
ATOM     11  N   UNL     1       3.286  -0.960  -0.107  0.00  0.00    +0.000 N 
ATOM     12  C   UNL     1       4.513  -0.494   0.342  0.00  0.00    +0.000 C 
ATOM     13  H   UNL     1       0.000   0.000   0.000  0.00  0.00    +0.000 HD
BRANCH  12  15
ATOM     14  N   UNL     1       5.792   0.460  -1.496  0.00  0.00    +0.000 NA
ATOM     15  C   UNL     1       5.037   0.668  -0.460  0.00  0.00    +0.000 C 
BRANCH  15  19
ATOM     16  S   UNL     1       4.482   4.574   0.090  0.00  0.00    +0.000 S 
ATOM     17  N   UNL     1       3.882   2.257   1.067  0.00  0.00    +0.000 NA
ATOM     18  N   UNL     1       2.978   4.105   2.233  0.00  0.00    +0.000 N 
ATOM     19  C   UNL     1       4.679   2.049  -0.041  0.00  0.00    +0.000 A 
ATOM     20  C   UNL     1       5.102   3.184  -0.701  0.00  0.00    +0.000 A 
ATOM     21  C   UNL     1       3.712   3.551   1.232  0.00  0.00    +0.000 A 
ATOM     22  H   UNL     1       0.000   0.000   0.000  0.00  0.00    +0.000 HD
ATOM     23  H   UNL     1       0.000   0.000   0.000  0.00  0.00    +0.000 HD
ENDBRANCH  15  19
BRANCH  14  24
ATOM     24  O   UNL     1       6.013  -0.907  -1.713  0.00  0.00    +0.000 OA
ATOM     25  C   UNL     1       6.842  -1.044  -2.857  0.00  0.00    +0.000 C 
ENDBRANCH  14  24
ENDBRANCH  12  15
ENDBRANCH   5  11
BRANCH   7  27
ATOM     26  OXT UNL     1      -2.201  -2.537  -1.547  0.00  0.00    +0.000 OA
ATOM     27  C   UNL     1      -1.513  -3.011  -0.665  0.00  0.00    +0.000 C 
BRANCH  27  28
ATOM     28  O   UNL     1      -1.271  -4.320  -0.458  0.00  0.00    +0.000 OA
ATOM     29  H   UNL     1       0.000   0.000   0.000  0.00  0.00    +0.000 HD
ENDBRANCH  27  28
ENDBRANCH   7  27
BRANCH   8  30
ATOM     30  C   UNL     1      -2.986  -1.328   1.306  0.00  0.00    +0.000 C 
BRANCH  30  31
ATOM     31  S   UNL     1      -3.600  -0.084   0.159  0.00  0.00    +0.000 S 
BRANCH  31  35
ATOM     32  O   UNL     1      -4.521   2.446  -0.590  0.00  0.00    +0.000 OA
ATOM     33  N   UNL     1      -6.044   0.671  -0.283  0.00  0.00    +0.000 N 
ATOM     34  N   UNL     1      -5.877  -1.012   1.340  0.00  0.00    +0.000 NA
ATOM     35  C   UNL     1      -5.318  -0.219   0.496  0.00  0.00    +0.000 C 
ATOM     36  C   UNL     1      -5.599   1.899  -0.751  0.00  0.00    +0.000 C 
ATOM     37  C   UNL     1      -7.322  -0.997   1.505  0.00  0.00    +0.000 C 
ATOM     38  H   UNL     1       0.000   0.000   0.000  0.00  0.00    +0.000 HD
BRANCH  36  41
ATOM     39  O   UNL     1      -6.351   2.854  -2.753  0.00  0.00    +0.000 OA
ATOM     40  N   UNL     1      -7.772   2.900  -0.909  0.00  0.00    +0.000 N 
ATOM     41  C   UNL     1      -6.622   2.601  -1.591  0.00  0.00    +0.000 C 
ATOM     42  H   UNL     1       0.000   0.000   0.000  0.00  0.00    +0.000 HD
ATOM     43  H   UNL     1       0.000   0.000   0.000  0.00  0.00    +0.000 HD
ENDBRANCH  36  41
ENDBRANCH  31  35
ENDBRANCH  30  31
ENDBRANCH   8  30
TORSDOF 10
