REMARK  Name = 163789
REMARK  15 active torsions:
REMARK  status: ('A' for Active; 'I' for Inactive)
REMARK    1  A    between atoms: S_2  and  C_26
REMARK    2  A    between atoms: S_2  and  C_31
REMARK    3  A    between atoms: O_5  and  C_28
REMARK    4  A    between atoms: O_9  and  N_18
REMARK    5  A    between atoms: O_10  and  C_42
REMARK    6  A    between atoms: O_11  and  C_45
REMARK    7  A    between atoms: N_14  and  CA_21
REMARK    8  A    between atoms: N_15  and  CA_29
REMARK    9  A    between atoms: N_17  and  C_40
REMARK   10  A    between atoms: CA_23  and  C_28
REMARK   11  A    between atoms: C_24  and  C_26
REMARK   12  A    between atoms: C_27  and  CA_29
REMARK   13  A    between atoms: CA_29  and  C_30
REMARK   14  A    between atoms: C_33  and  C_37
REMARK   15  A    between atoms: C_40  and  C_42
REMARK                            x       y       z     vdW  Elec       q    Type
REMARK                         _______ _______ _______ _____ _____    ______ ____
ROOT
ATOM      1  O   UNL     1      -1.834   0.608   1.042  0.00  0.00    +0.000 OA
ATOM      2  N   UNL     1      -0.544   0.037  -0.800  0.00  0.00    +0.000 N 
ATOM      3  C   UNL     1      -1.706   0.012  -0.026  0.00  0.00    +0.000 C 
ATOM      4  H   UNL     1       0.000   0.000   0.000  0.00  0.00    +0.000 HD
ENDROOT
BRANCH   2   9
ATOM      5  S   UNL     1       1.715  -0.833  -2.507  0.00  0.00    +0.000 S 
ATOM      6  O   UNL     1       1.175   0.128   2.011  0.00  0.00    +0.000 OA
ATOM      7  N   UNL     1       2.354  -0.280   0.010  0.00  0.00    +0.000 N 
ATOM      8  C   UNL     1       1.923   0.397  -1.200  0.00  0.00    +0.000 C 
ATOM      9  CA  UNL     1       0.651   0.784  -0.414  0.00  0.00    +0.000 C 
ATOM     10  C   UNL     1       1.389   0.201   0.824  0.00  0.00    +0.000 C 
ATOM     11  CA  UNL     1       3.430  -1.106   0.071  0.00  0.00    +0.000 C 
ATOM     12  C   UNL     1       4.013  -1.591  -1.051  0.00  0.00    +0.000 C 
ATOM     13  C   UNL     1       3.467  -1.345  -2.456  0.00  0.00    +0.000 C 
BRANCH  11  15
ATOM     14  OXT UNL     1       3.899  -2.643   1.822  0.00  0.00    +0.000 OA
ATOM     15  C   UNL     1       3.893  -1.501   1.409  0.00  0.00    +0.000 C 
BRANCH  15  16
ATOM     16  O   UNL     1       4.299  -0.407   2.083  0.00  0.00    +0.000 OA
ATOM     17  H   UNL     1       0.000   0.000   0.000  0.00  0.00    +0.000 HD
ENDBRANCH  15  16
ENDBRANCH  11  15
BRANCH  12  18
ATOM     18  C   UNL     1       5.258  -2.446  -1.070  0.00  0.00    +0.000 C 
BRANCH  18  19
ATOM     19  S   UNL     1       6.544  -1.606  -2.009  0.00  0.00    +0.000 S 
BRANCH  19  21
ATOM     20  N   UNL     1       7.054   2.230   0.332  0.00  0.00    +0.000 N 
ATOM     21  C   UNL     1       6.746  -0.085  -1.081  0.00  0.00    +0.000 A 
ATOM     22  C   UNL     1       6.521   1.142  -1.697  0.00  0.00    +0.000 A 
ATOM     23  C   UNL     1       7.128  -0.131   0.256  0.00  0.00    +0.000 A 
ATOM     24  C   UNL     1       6.685   2.303  -0.954  0.00  0.00    +0.000 A 
ATOM     25  C   UNL     1       7.277   1.062   0.950  0.00  0.00    +0.000 A 
BRANCH  20  26
ATOM     26  C   UNL     1       7.218   3.469   1.088  0.00  0.00    +0.000 C 
BRANCH  26  27
ATOM     27  C   UNL     1       5.902   3.848   1.744  0.00  0.00    +0.000 C 
BRANCH  27  28
ATOM     28  O   UNL     1       4.912   4.051   0.746  0.00  0.00    +0.000 OA
ATOM     29  H   UNL     1       0.000   0.000   0.000  0.00  0.00    +0.000 HD
ENDBRANCH  27  28
ENDBRANCH  26  27
ENDBRANCH  20  26
ENDBRANCH  19  21
ENDBRANCH  18  19
ENDBRANCH  12  18
ENDBRANCH   2   9
BRANCH   3  30
ATOM     30  CA  UNL     1      -2.792  -0.874  -0.622  0.00  0.00    +0.000 C 
BRANCH  30  34
ATOM     31  S   UNL     1      -2.530  -4.793   0.164  0.00  0.00    +0.000 S 
ATOM     32  N   UNL     1      -2.809  -2.472   1.268  0.00  0.00    +0.000 NA
ATOM     33  N   UNL     1      -2.776  -4.301   2.767  0.00  0.00    +0.000 N 
ATOM     34  C   UNL     1      -2.717  -2.277  -0.096  0.00  0.00    +0.000 A 
ATOM     35  C   UNL     1      -2.563  -3.416  -0.858  0.00  0.00    +0.000 A 
ATOM     36  C   UNL     1      -2.723  -3.759   1.521  0.00  0.00    +0.000 A 
ATOM     37  H   UNL     1       0.000   0.000   0.000  0.00  0.00    +0.000 HD
ATOM     38  H   UNL     1       0.000   0.000   0.000  0.00  0.00    +0.000 HD
ENDBRANCH  30  34
BRANCH  30  40
ATOM     39  O   UNL     1      -4.237   1.143  -2.134  0.00  0.00    +0.000 OA
ATOM     40  N   UNL     1      -4.079  -0.306  -0.314  0.00  0.00    +0.000 N 
ATOM     41  C   UNL     1      -4.685   0.655  -1.103  0.00  0.00    +0.000 C 
ATOM     42  H   UNL     1       0.000   0.000   0.000  0.00  0.00    +0.000 HD
BRANCH  41  45
ATOM     43  O   UNL     1      -9.401   1.139  -1.589  0.00  0.00    +0.000 OA
ATOM     44  N   UNL     1      -6.105   1.643   0.677  0.00  0.00    +0.000 N 
ATOM     45  C   UNL     1      -5.998   1.077  -0.581  0.00  0.00    +0.000 A 
ATOM     46  C   UNL     1      -7.053   0.880  -1.389  0.00  0.00    +0.000 A 
ATOM     47  C   UNL     1      -7.337   2.034   1.157  0.00  0.00    +0.000 A 
ATOM     48  C   UNL     1      -8.402   1.294  -0.896  0.00  0.00    +0.000 A 
ATOM     49  C   UNL     1      -8.480   1.902   0.467  0.00  0.00    +0.000 A 
BRANCH  44  50
ATOM     50  O   UNL     1      -4.984   1.831   1.474  0.00  0.00    +0.000 OA
ATOM     51  H   UNL     1       0.000   0.000   0.000  0.00  0.00    +0.000 HD
ENDBRANCH  44  50
BRANCH  49  52
ATOM     52  O   UNL     1      -9.696   2.301   0.966  0.00  0.00    +0.000 OA
ATOM     53  H   UNL     1       0.000   0.000   0.000  0.00  0.00    +0.000 HD
ENDBRANCH  49  52
ENDBRANCH  41  45
ENDBRANCH  30  40
ENDBRANCH   3  30
TORSDOF 15
