REMARK  Name = 56607520
REMARK  9 active torsions:
REMARK  status: ('A' for Active; 'I' for Inactive)
REMARK    1  A    between atoms: O_4  and  N_12
REMARK    2  A    between atoms: O_4  and  C_23
REMARK    3  A    between atoms: O_6  and  N_13
REMARK    4  A    between atoms: O_6  and  C_25
REMARK    5  A    between atoms: N_10  and  C_22
REMARK    6  A    between atoms: C_19  and  C_23
REMARK    7  A    between atoms: C_20  and  C_22
REMARK    8  A    between atoms: C_33  and  C_34
REMARK    9  A    between atoms: C_34  and  C_35
REMARK                            x       y       z     vdW  Elec       q    Type
REMARK                         _______ _______ _______ _____ _____    ______ ____
ROOT
ATOM      1  O   UNL     1       1.006  -1.092  -2.171  0.00  0.00    +0.000 OA
ATOM      2  N   UNL     1       0.299  -0.225  -0.119  0.00  0.00    +0.000 N 
ATOM      3  C   UNL     1       1.202  -0.610  -1.067  0.00  0.00    +0.000 C 
ATOM      4  H   UNL     1       0.000   0.000   0.000  0.00  0.00    +0.000 HD
ENDROOT
BRANCH   3   6
ATOM      5  N   UNL     1       3.217   0.744  -0.885  0.00  0.00    +0.000 NA
ATOM      6  C   UNL     1       2.624  -0.383  -0.628  0.00  0.00    +0.000 C 
BRANCH   6  10
ATOM      7  S   UNL     1       4.097  -3.742   0.928  0.00  0.00    +0.000 S 
ATOM      8  N   UNL     1       4.312  -1.167   1.025  0.00  0.00    +0.000 NA
ATOM      9  N   UNL     1       5.761  -2.352   2.470  0.00  0.00    +0.000 N 
ATOM     10  C   UNL     1       3.334  -1.470   0.098  0.00  0.00    +0.000 A 
ATOM     11  C   UNL     1       3.078  -2.812  -0.091  0.00  0.00    +0.000 A 
ATOM     12  C   UNL     1       4.784  -2.287   1.527  0.00  0.00    +0.000 A 
ATOM     13  H   UNL     1       0.000   0.000   0.000  0.00  0.00    +0.000 HD
ATOM     14  H   UNL     1       0.000   0.000   0.000  0.00  0.00    +0.000 HD
ENDBRANCH   6  10
BRANCH   5  15
ATOM     15  O   UNL     1       4.533   0.760  -0.401  0.00  0.00    +0.000 OA
BRANCH  15  19
ATOM     16  O   UNL     1       7.317   1.065  -1.103  0.00  0.00    +0.000 OA
ATOM     17  N   UNL     1       7.031   3.174  -0.119  0.00  0.00    +0.000 N 
ATOM     18  C   UNL     1       4.767   3.049   0.345  0.00  0.00    +0.000 C 
ATOM     19  C   UNL     1       5.099   2.006  -0.718  0.00  0.00    +0.000 C 
ATOM     20  C   UNL     1       5.930   4.016   0.262  0.00  0.00    +0.000 C 
ATOM     21  C   UNL     1       6.614   1.974  -0.691  0.00  0.00    +0.000 C 
ATOM     22  H   UNL     1       0.000   0.000   0.000  0.00  0.00    +0.000 HD
ENDBRANCH  15  19
ENDBRANCH   5  15
ENDBRANCH   3   6
BRANCH   2  23
ATOM     23  O   UNL     1      -1.046  -0.505  -0.420  0.00  0.00    +0.000 OA
BRANCH  23  25
ATOM     24  O   UNL     1      -1.407  -0.702   1.859  0.00  0.00    +0.000 OA
ATOM     25  C   UNL     1      -1.779  -0.723   0.700  0.00  0.00    +0.000 C 
BRANCH  25  32
ATOM     26  S   UNL     1      -5.968  -2.331   0.068  0.00  0.00    +0.000 S 
ATOM     27  O   UNL     1      -1.568  -3.612  -0.724  0.00  0.00    +0.000 OA
ATOM     28  N   UNL     1      -3.373  -2.118  -0.454  0.00  0.00    +0.000 N 
ATOM     29  C   UNL     1      -4.622  -2.409  -1.135  0.00  0.00    +0.000 C 
ATOM     30  C   UNL     1      -4.032  -3.808  -1.415  0.00  0.00    +0.000 C 
ATOM     31  C   UNL     1      -2.707  -3.225  -0.846  0.00  0.00    +0.000 C 
ATOM     32  C   UNL     1      -3.165  -1.007   0.299  0.00  0.00    +0.000 C 
ATOM     33  C   UNL     1      -4.194  -0.230   0.712  0.00  0.00    +0.000 C 
ATOM     34  C   UNL     1      -5.660  -0.576   0.465  0.00  0.00    +0.000 C 
BRANCH  33  35
ATOM     35  C   UNL     1      -4.039   1.061   1.481  0.00  0.00    +0.000 C 
BRANCH  35  36
ATOM     36  N   UNL     1      -4.671   2.216   0.767  0.00  0.00    +0.000 N 
ATOM     37  C   UNL     1      -4.042   2.745  -0.291  0.00  0.00    +0.000 A 
ATOM     38  C   UNL     1      -5.846   2.684   1.210  0.00  0.00    +0.000 A 
ATOM     39  C   UNL     1      -4.604   3.816  -0.971  0.00  0.00    +0.000 A 
ATOM     40  C   UNL     1      -6.456   3.754   0.569  0.00  0.00    +0.000 A 
ATOM     41  C   UNL     1      -5.824   4.322  -0.533  0.00  0.00    +0.000 A 
ENDBRANCH  35  36
ENDBRANCH  33  35
ENDBRANCH  25  32
ENDBRANCH  23  25
ENDBRANCH   2  23
TORSDOF 9
