REMARK  Name = 25056706
REMARK  16 active torsions:
REMARK  status: ('A' for Active; 'I' for Inactive)
REMARK    1  A    between atoms: S_2  and  C_25
REMARK    2  A    between atoms: S_2  and  C_39
REMARK    3  A    between atoms: O_6  and  C_31
REMARK    4  A    between atoms: O_9  and  N_16
REMARK    5  A    between atoms: O_9  and  C_43
REMARK    6  A    between atoms: O_10  and  C_47
REMARK    7  A    between atoms: N_13  and  CA_20
REMARK    8  A    between atoms: N_14  and  C_33
REMARK    9  A    between atoms: CA_22  and  C_31
REMARK   10  A    between atoms: C_23  and  C_25
REMARK   11  A    between atoms: C_32  and  C_37
REMARK   12  A    between atoms: C_33  and  C_38
REMARK   13  A    between atoms: C_37  and  C_41
REMARK   14  A    between atoms: C_43  and  C_45
REMARK   15  A    between atoms: C_43  and  C_46
REMARK   16  A    between atoms: C_43  and  C_47
REMARK                            x       y       z     vdW  Elec       q    Type
REMARK                         _______ _______ _______ _____ _____    ______ ____
ROOT
ATOM      1  S   UNL     1      -0.039  -3.170   2.426  0.00  0.00    +0.000 S 
ATOM      2  O   UNL     1       0.195  -2.060  -2.085  0.00  0.00    +0.000 OA
ATOM      3  N   UNL     1      -0.738  -2.142   0.080  0.00  0.00    +0.000 N 
ATOM      4  C   UNL     1       0.115  -1.838   1.214  0.00  0.00    +0.000 C 
ATOM      5  CA  UNL     1       1.299  -1.939   0.229  0.00  0.00    +0.000 C 
ATOM      6  C   UNL     1       0.209  -2.028  -0.877  0.00  0.00    +0.000 C 
ATOM      7  CA  UNL     1      -2.061  -2.430   0.184  0.00  0.00    +0.000 C 
ATOM      8  C   UNL     1      -2.625  -2.740   1.375  0.00  0.00    +0.000 C 
ATOM      9  C   UNL     1      -1.827  -2.893   2.668  0.00  0.00    +0.000 C 
ENDROOT
BRANCH   5  11
ATOM     10  O   UNL     1       3.272  -0.967   2.191  0.00  0.00    +0.000 OA
ATOM     11  N   UNL     1       2.124  -0.736   0.156  0.00  0.00    +0.000 N 
ATOM     12  C   UNL     1       3.023  -0.382   1.149  0.00  0.00    +0.000 C 
ATOM     13  H   UNL     1       0.000   0.000   0.000  0.00  0.00    +0.000 HD
BRANCH  12  15
ATOM     14  N   UNL     1       4.875   0.880   0.199  0.00  0.00    +0.000 NA
ATOM     15  C   UNL     1       3.754   0.901   0.854  0.00  0.00    +0.000 C 
BRANCH  15  19
ATOM     16  S   UNL     1       2.769   4.646   1.792  0.00  0.00    +0.000 S 
ATOM     17  N   UNL     1       1.971   2.196   2.011  0.00  0.00    +0.000 NA
ATOM     18  N   UNL     1       0.548   3.809   2.992  0.00  0.00    +0.000 N 
ATOM     19  C   UNL     1       3.167   2.186   1.319  0.00  0.00    +0.000 A 
ATOM     20  C   UNL     1       3.749   3.418   1.105  0.00  0.00    +0.000 A 
ATOM     21  C   UNL     1       1.664   3.439   2.311  0.00  0.00    +0.000 A 
ATOM     22  H   UNL     1       0.000   0.000   0.000  0.00  0.00    +0.000 HD
ATOM     23  H   UNL     1       0.000   0.000   0.000  0.00  0.00    +0.000 HD
ENDBRANCH  15  19
BRANCH  14  24
ATOM     24  O   UNL     1       5.247  -0.425  -0.153  0.00  0.00    +0.000 OA
BRANCH  24  25
ATOM     25  C   UNL     1       6.475  -0.359  -0.861  0.00  0.00    +0.000 C 
ATOM     26  C   UNL     1       6.251   0.479  -2.117  0.00  0.00    +0.000 C 
ATOM     27  C   UNL     1       7.522   0.252   0.065  0.00  0.00    +0.000 C 
BRANCH  25  29
ATOM     28  O   UNL     1       6.112  -2.765  -0.962  0.00  0.00    +0.000 OA
ATOM     29  C   UNL     1       6.823  -1.799  -1.214  0.00  0.00    +0.000 C 
BRANCH  29  30
ATOM     30  O   UNL     1       8.018  -1.925  -1.845  0.00  0.00    +0.000 OA
ATOM     31  H   UNL     1       0.000   0.000   0.000  0.00  0.00    +0.000 HD
ENDBRANCH  29  30
ENDBRANCH  25  29
ENDBRANCH  24  25
ENDBRANCH  14  24
ENDBRANCH  12  15
ENDBRANCH   5  11
BRANCH   7  33
ATOM     32  OXT UNL     1      -3.446  -1.502  -1.509  0.00  0.00    +0.000 OA
ATOM     33  C   UNL     1      -2.839  -2.454  -1.063  0.00  0.00    +0.000 C 
BRANCH  33  34
ATOM     34  O   UNL     1      -2.765  -3.682  -1.613  0.00  0.00    +0.000 OA
ATOM     35  H   UNL     1       0.000   0.000   0.000  0.00  0.00    +0.000 HD
ENDBRANCH  33  34
ENDBRANCH   7  33
BRANCH   8  36
ATOM     36  C   UNL     1      -4.098  -2.992   1.587  0.00  0.00    +0.000 C 
BRANCH  36  37
ATOM     37  S   UNL     1      -4.745  -1.793   2.764  0.00  0.00    +0.000 S 
BRANCH  37  41
ATOM     38  S   UNL     1      -6.831  -0.364   1.016  0.00  0.00    +0.000 S 
ATOM     39  N   UNL     1      -4.426   0.516   1.368  0.00  0.00    +0.000 NA
ATOM     40  C   UNL     1      -5.077   1.403   0.532  0.00  0.00    +0.000 A 
ATOM     41  C   UNL     1      -5.254  -0.454   1.686  0.00  0.00    +0.000 A 
ATOM     42  C   UNL     1      -6.387   1.093   0.229  0.00  0.00    +0.000 A 
BRANCH  40  43
ATOM     43  C   UNL     1      -4.334   2.581   0.044  0.00  0.00    +0.000 C 
BRANCH  43  44
ATOM     44  N   UNL     1      -3.052   2.251  -0.706  0.00  0.00    +0.000 N 
ATOM     45  C   UNL     1      -3.097   1.857  -1.978  0.00  0.00    +0.000 A 
ATOM     46  C   UNL     1      -4.329   1.663  -2.796  0.00  0.00    +0.000 C 
ATOM     47  C   UNL     1      -3.716   1.621  -4.206  0.00  0.00    +0.000 C 
ATOM     48  C   UNL     1      -2.276   1.088  -4.059  0.00  0.00    +0.000 C 
ATOM     49  C   UNL     1      -1.942   1.536  -2.675  0.00  0.00    +0.000 A 
ATOM     50  C   UNL     1      -0.716   1.620  -2.047  0.00  0.00    +0.000 A 
ATOM     51  C   UNL     1      -1.878   2.357  -0.061  0.00  0.00    +0.000 A 
ATOM     52  C   UNL     1      -0.685   2.044  -0.718  0.00  0.00    +0.000 A 
ENDBRANCH  43  44
ENDBRANCH  40  43
ENDBRANCH  37  41
ENDBRANCH  36  37
ENDBRANCH   8  36
TORSDOF 14
