MODEL 1
REMARK minimizedAffinity -8.07151794
REMARK minimizedRMSD -1
REMARK  Name = 88718442
REMARK  15 active torsions:
REMARK  status: ('A' for Active; 'I' for Inactive)
REMARK    1  A    between atoms: S_2  and  N_14
REMARK    2  A    between atoms: S_2  and  C_29
REMARK    3  A    between atoms: O_5  and  C_22
REMARK    4  A    between atoms: O_8  and  N_11
REMARK    5  A    between atoms: O_8  and  C_33
REMARK    6  A    between atoms: N_10  and  CA_17
REMARK    7  A    between atoms: N_12  and  C_29
REMARK    8  A    between atoms: CA_19  and  C_22
REMARK    9  A    between atoms: C_21  and  C_23
REMARK   10  A    between atoms: C_24  and  C_27
REMARK   11  A    between atoms: C_25  and  C_26
REMARK   12  A    between atoms: C_26  and  C_28
REMARK   13  A    between atoms: C_27  and  C_30
REMARK   14  A    between atoms: C_28  and  C_29
REMARK   15  A    between atoms: C_33  and  C_39
REMARK                            x       y       z     vdW  Elec       q    Type
REMARK                         _______ _______ _______ _____ _____    ______ ____
ROOT
ATOM      1  S   UNL     1      16.535   5.285  24.144  0.00  0.00    +0.000 S 
ATOM      2  O   UNL     1      13.009   8.327  24.169  0.00  0.00    +0.000 OA
ATOM      3  N   UNL     1      14.914   7.221  23.326  0.00  0.00    +0.000 N 
ATOM      4  C   UNL     1      14.960   5.771  23.400  0.00  0.00    +0.000 C 
ATOM      5  CA  UNL     1      13.754   5.878  24.366  0.00  0.00    +0.000 C 
ATOM      6  C   UNL     1      13.729   7.380  23.957  0.00  0.00    +0.000 C 
ATOM      7  CA  UNL     1      15.873   7.979  22.730  0.00  0.00    +0.000 C 
ATOM      8  C   UNL     1      17.525   6.047  22.809  0.00  0.00    +0.000 C 
ATOM      9  C   UNL     1      17.090   7.462  22.433  0.00  0.00    +0.000 C 
ENDROOT
BRANCH   5  11
ATOM     10  O   UNL     1      12.654   3.416  25.557  0.00  0.00    +0.000 OA
ATOM     11  N   UNL     1      12.581   5.123  23.946  0.00  0.00    +0.000 N 
ATOM     12  C   UNL     1      12.156   3.969  24.589  0.00  0.00    +0.000 C 
ATOM     13  H   UNL     1      15.076   6.128  22.951  0.00  0.00    +0.000 HD
BRANCH  12  15
ATOM     14  N   UNL     1      10.229   4.039  23.103  0.00  0.00    +0.000 NA
ATOM     15  C   UNL     1      10.918   3.369  23.978  0.00  0.00    +0.000 C 
BRANCH  15  19
ATOM     16  S   UNL     1       9.377   0.068  25.589  0.00  0.00    +0.000 S 
ATOM     17  N   UNL     1      11.023   0.891  23.774  0.00  0.00    +0.000 NA
ATOM     18  N   UNL     1      10.803  -1.457  23.941  0.00  0.00    +0.000 N 
ATOM     19  C   UNL     1      10.498   2.005  24.398  0.00  0.00    +0.000 A 
ATOM     20  C   UNL     1       9.590   1.759  25.407  0.00  0.00    +0.000 A 
ATOM     21  C   UNL     1      10.503  -0.186  24.319  0.00  0.00    +0.000 A 
ATOM     22  H   UNL     1      12.968   4.853  28.400  0.00  0.00    +0.000 HD
ATOM     23  H   UNL     1      12.968   4.853  28.400  0.00  0.00    +0.000 HD
ENDBRANCH  15  19
BRANCH  14  24
ATOM     24  O   UNL     1       9.113   3.316  22.659  0.00  0.00    +0.000 OA
BRANCH  24  25
ATOM     25  C   UNL     1       8.071   4.240  22.381  0.00  0.00    +0.000 C 
BRANCH  25  26
ATOM     26  C   UNL     1       7.229   4.394  23.604  0.00  0.00    +0.000 C 
ATOM     27  C   UNL     1       5.978   4.866  23.595  0.00  0.00    +0.000 C 
ENDBRANCH  25  26
ENDBRANCH  24  25
ENDBRANCH  14  24
ENDBRANCH  12  15
ENDBRANCH   5  11
BRANCH   7  29
ATOM     28  OXT UNL     1      15.555  10.260  23.318  0.00  0.00    +0.000 OA
ATOM     29  C   UNL     1      15.531   9.389  22.474  0.00  0.00    +0.000 C 
BRANCH  29  30
ATOM     30  O   UNL     1      15.196   9.536  21.177  0.00  0.00    +0.000 OA
ATOM     31  H   UNL     1      14.816   6.896  21.974  0.00  0.00    +0.000 HD
ENDBRANCH  29  30
ENDBRANCH   7  29
BRANCH   9  32
ATOM     32  C   UNL     1      18.142   8.184  21.741  0.00  0.00    +0.000 C 
ATOM     33  C   UNL     1      19.219   7.585  21.240  0.00  0.00    +0.000 C 
BRANCH  33  34
ATOM     34  C   UNL     1      20.309   8.329  20.521  0.00  0.00    +0.000 C 
BRANCH  34  35
ATOM     35  C   UNL     1      19.806   9.598  19.812  0.00  0.00    +0.000 C 
BRANCH  35  36
ATOM     36  C   UNL     1      19.929   9.601  18.275  0.00  0.00    +0.000 C 
BRANCH  36  37
ATOM     37  N   UNL     1      18.655  10.042  17.705  0.00  0.00    +0.000 NA
ATOM     38  H   UNL     1      25.681  12.752  18.974  0.00  0.00    +0.000 HD
ATOM     39  H   UNL     1      25.681  12.752  18.974  0.00  0.00    +0.000 HD
ENDBRANCH  36  37
BRANCH  36  40
ATOM     40  S   UNL     1      20.362   7.927  17.648  0.00  0.00    +0.000 S 
BRANCH  40  41
ATOM     41  N   UNL     1      22.056   8.189  17.141  0.00  0.00    +0.000 N 
ATOM     42  C   UNL     1      22.460   7.702  15.960  0.00  0.00    +0.000 A 
ATOM     43  C   UNL     1      22.876   8.866  17.956  0.00  0.00    +0.000 A 
ATOM     44  C   UNL     1      23.769   7.890  15.541  0.00  0.00    +0.000 A 
ATOM     45  C   UNL     1      24.196   9.086  17.589  0.00  0.00    +0.000 A 
ATOM     46  C   UNL     1      24.643   8.590  16.368  0.00  0.00    +0.000 A 
ENDBRANCH  40  41
ENDBRANCH  36  40
ENDBRANCH  35  36
ENDBRANCH  34  35
ENDBRANCH  33  34
ENDBRANCH   9  32
TORSDOF 15
ENDMDL
MODEL 2
REMARK minimizedAffinity -7.80383587
REMARK minimizedRMSD -1
REMARK  Name = 88718442
REMARK  15 active torsions:
REMARK  status: ('A' for Active; 'I' for Inactive)
REMARK    1  A    between atoms: S_2  and  N_14
REMARK    2  A    between atoms: S_2  and  C_29
REMARK    3  A    between atoms: O_5  and  C_22
REMARK    4  A    between atoms: O_8  and  N_11
REMARK    5  A    between atoms: O_8  and  C_33
REMARK    6  A    between atoms: N_10  and  CA_17
REMARK    7  A    between atoms: N_12  and  C_29
REMARK    8  A    between atoms: CA_19  and  C_22
REMARK    9  A    between atoms: C_21  and  C_23
REMARK   10  A    between atoms: C_24  and  C_27
REMARK   11  A    between atoms: C_25  and  C_26
REMARK   12  A    between atoms: C_26  and  C_28
REMARK   13  A    between atoms: C_27  and  C_30
REMARK   14  A    between atoms: C_28  and  C_29
REMARK   15  A    between atoms: C_33  and  C_39
REMARK                            x       y       z     vdW  Elec       q    Type
REMARK                         _______ _______ _______ _____ _____    ______ ____
ROOT
ATOM      1  S   UNL     1      19.272   7.060  20.409  0.00  0.00    +0.000 S 
ATOM      2  O   UNL     1      19.296  10.211  16.979  0.00  0.00    +0.000 OA
ATOM      3  N   UNL     1      18.996   9.392  19.171  0.00  0.00    +0.000 N 
ATOM      4  C   UNL     1      20.038   8.559  19.746  0.00  0.00    +0.000 C 
ATOM      5  CA  UNL     1      20.612   8.452  18.311  0.00  0.00    +0.000 C 
ATOM      6  C   UNL     1      19.562   9.547  17.953  0.00  0.00    +0.000 C 
ATOM      7  CA  UNL     1      17.887   9.791  19.848  0.00  0.00    +0.000 C 
ATOM      8  C   UNL     1      18.241   7.984  21.603  0.00  0.00    +0.000 C 
ATOM      9  C   UNL     1      17.520   9.193  21.007  0.00  0.00    +0.000 C 
ENDROOT
BRANCH   5  11
ATOM     10  O   UNL     1      22.714   7.344  16.567  0.00  0.00    +0.000 OA
ATOM     11  N   UNL     1      21.997   8.887  18.186  0.00  0.00    +0.000 N 
ATOM     12  C   UNL     1      22.902   8.283  17.325  0.00  0.00    +0.000 C 
ATOM     13  H   UNL     1      20.095   7.988  20.137  0.00  0.00    +0.000 HD
BRANCH  12  15
ATOM     14  N   UNL     1      24.815   9.364  16.278  0.00  0.00    +0.000 NA
ATOM     15  C   UNL     1      24.270   8.909  17.366  0.00  0.00    +0.000 C 
BRANCH  15  19
ATOM     16  S   UNL     1      26.365   8.433  20.721  0.00  0.00    +0.000 S 
ATOM     17  N   UNL     1      24.957  10.157  19.408  0.00  0.00    +0.000 NA
ATOM     18  N   UNL     1      25.831  10.931  21.463  0.00  0.00    +0.000 N 
ATOM     19  C   UNL     1      24.984   8.990  18.669  0.00  0.00    +0.000 A 
ATOM     20  C   UNL     1      25.697   7.946  19.219  0.00  0.00    +0.000 A 
ATOM     21  C   UNL     1      25.652   9.979  20.508  0.00  0.00    +0.000 A 
ATOM     22  H   UNL     1      21.009   5.193  18.597  0.00  0.00    +0.000 HD
ATOM     23  H   UNL     1      21.009   5.193  18.597  0.00  0.00    +0.000 HD
ENDBRANCH  15  19
BRANCH  14  24
ATOM     24  O   UNL     1      26.088   9.900  16.521  0.00  0.00    +0.000 OA
BRANCH  24  25
ATOM     25  C   UNL     1      26.950   9.482  15.473  0.00  0.00    +0.000 C 
BRANCH  25  26
ATOM     26  C   UNL     1      27.992   8.577  16.042  0.00  0.00    +0.000 C 
ATOM     27  C   UNL     1      27.812   7.269  16.254  0.00  0.00    +0.000 C 
ENDBRANCH  25  26
ENDBRANCH  24  25
ENDBRANCH  14  24
ENDBRANCH  12  15
ENDBRANCH   5  11
BRANCH   7  29
ATOM     28  OXT UNL     1      17.523  11.975  18.984  0.00  0.00    +0.000 OA
ATOM     29  C   UNL     1      17.093  10.868  19.231  0.00  0.00    +0.000 C 
BRANCH  29  30
ATOM     30  O   UNL     1      15.843  10.422  18.998  0.00  0.00    +0.000 OA
ATOM     31  H   UNL     1      17.031   8.936  21.031  0.00  0.00    +0.000 HD
ENDBRANCH  29  30
ENDBRANCH   7  29
BRANCH   9  32
ATOM     32  C   UNL     1      16.391   9.602  21.822  0.00  0.00    +0.000 C 
ATOM     33  C   UNL     1      15.577   8.733  22.417  0.00  0.00    +0.000 C 
BRANCH  33  34
ATOM     34  C   UNL     1      14.409   9.154  23.263  0.00  0.00    +0.000 C 
BRANCH  34  35
ATOM     35  C   UNL     1      13.529   7.974  23.707  0.00  0.00    +0.000 C 
BRANCH  35  36
ATOM     36  C   UNL     1      13.191   6.941  22.614  0.00  0.00    +0.000 C 
BRANCH  36  37
ATOM     37  N   UNL     1      11.890   7.281  22.035  0.00  0.00    +0.000 NA
ATOM     38  H   UNL     1      19.309   7.746  20.284  0.00  0.00    +0.000 HD
ATOM     39  H   UNL     1      19.309   7.746  20.284  0.00  0.00    +0.000 HD
ENDBRANCH  36  37
BRANCH  36  40
ATOM     40  S   UNL     1      13.153   5.238  23.309  0.00  0.00    +0.000 S 
BRANCH  40  41
ATOM     41  N   UNL     1      14.822   5.095  23.932  0.00  0.00    +0.000 N 
ATOM     42  C   UNL     1      15.840   5.096  23.061  0.00  0.00    +0.000 A 
ATOM     43  C   UNL     1      15.010   4.990  25.255  0.00  0.00    +0.000 A 
ATOM     44  C   UNL     1      17.145   4.986  23.516  0.00  0.00    +0.000 A 
ATOM     45  C   UNL     1      16.295   4.878  25.768  0.00  0.00    +0.000 A 
ATOM     46  C   UNL     1      17.371   4.877  24.885  0.00  0.00    +0.000 A 
ENDBRANCH  40  41
ENDBRANCH  36  40
ENDBRANCH  35  36
ENDBRANCH  34  35
ENDBRANCH  33  34
ENDBRANCH   9  32
TORSDOF 15
ENDMDL
MODEL 3
REMARK minimizedAffinity -7.68495989
REMARK minimizedRMSD -1
REMARK  Name = 88718442
REMARK  15 active torsions:
REMARK  status: ('A' for Active; 'I' for Inactive)
REMARK    1  A    between atoms: S_2  and  N_14
REMARK    2  A    between atoms: S_2  and  C_29
REMARK    3  A    between atoms: O_5  and  C_22
REMARK    4  A    between atoms: O_8  and  N_11
REMARK    5  A    between atoms: O_8  and  C_33
REMARK    6  A    between atoms: N_10  and  CA_17
REMARK    7  A    between atoms: N_12  and  C_29
REMARK    8  A    between atoms: CA_19  and  C_22
REMARK    9  A    between atoms: C_21  and  C_23
REMARK   10  A    between atoms: C_24  and  C_27
REMARK   11  A    between atoms: C_25  and  C_26
REMARK   12  A    between atoms: C_26  and  C_28
REMARK   13  A    between atoms: C_27  and  C_30
REMARK   14  A    between atoms: C_28  and  C_29
REMARK   15  A    between atoms: C_33  and  C_39
REMARK                            x       y       z     vdW  Elec       q    Type
REMARK                         _______ _______ _______ _____ _____    ______ ____
ROOT
ATOM      1  S   UNL     1      16.332   5.233  24.180  0.00  0.00    +0.000 S 
ATOM      2  O   UNL     1      12.729   8.068  23.361  0.00  0.00    +0.000 OA
ATOM      3  N   UNL     1      14.796   7.010  22.945  0.00  0.00    +0.000 N 
ATOM      4  C   UNL     1      14.890   5.574  23.144  0.00  0.00    +0.000 C 
ATOM      5  CA  UNL     1      13.532   5.684  23.881  0.00  0.00    +0.000 C 
ATOM      6  C   UNL     1      13.515   7.149  23.352  0.00  0.00    +0.000 C 
ATOM      7  CA  UNL     1      15.811   7.774  22.460  0.00  0.00    +0.000 C 
ATOM      8  C   UNL     1      17.504   5.948  22.975  0.00  0.00    +0.000 C 
ATOM      9  C   UNL     1      17.082   7.306  22.416  0.00  0.00    +0.000 C 
ENDROOT
BRANCH   5  11
ATOM     10  O   UNL     1      12.075   3.498  25.218  0.00  0.00    +0.000 OA
ATOM     11  N   UNL     1      12.482   4.836  23.332  0.00  0.00    +0.000 N 
ATOM     12  C   UNL     1      11.865   3.831  24.062  0.00  0.00    +0.000 C 
ATOM     13  H   UNL     1      15.184   5.664  22.839  0.00  0.00    +0.000 HD
BRANCH  12  15
ATOM     14  N   UNL     1      11.141   2.148  22.460  0.00  0.00    +0.000 NA
ATOM     15  C   UNL     1      10.807   3.094  23.284  0.00  0.00    +0.000 C 
BRANCH  15  19
ATOM     16  S   UNL     1       7.123   4.610  23.273  0.00  0.00    +0.000 S 
ATOM     17  N   UNL     1       8.601   2.814  24.402  0.00  0.00    +0.000 NA
ATOM     18  N   UNL     1       6.369   2.910  25.175  0.00  0.00    +0.000 N 
ATOM     19  C   UNL     1       9.382   3.474  23.473  0.00  0.00    +0.000 A 
ATOM     20  C   UNL     1       8.755   4.478  22.765  0.00  0.00    +0.000 A 
ATOM     21  C   UNL     1       7.392   3.329  24.383  0.00  0.00    +0.000 A 
ATOM     22  H   UNL     1      12.890   7.551  24.609  0.00  0.00    +0.000 HD
ATOM     23  H   UNL     1      12.890   7.551  24.609  0.00  0.00    +0.000 HD
ENDBRANCH  15  19
BRANCH  14  24
ATOM     24  O   UNL     1      10.020   1.590  21.829  0.00  0.00    +0.000 OA
BRANCH  24  25
ATOM     25  C   UNL     1      10.071   0.182  22.003  0.00  0.00    +0.000 C 
BRANCH  25  26
ATOM     26  C   UNL     1       8.766  -0.281  22.560  0.00  0.00    +0.000 C 
ATOM     27  C   UNL     1       8.616  -0.801  23.783  0.00  0.00    +0.000 C 
ENDBRANCH  25  26
ENDBRANCH  24  25
ENDBRANCH  14  24
ENDBRANCH  12  15
ENDBRANCH   5  11
BRANCH   7  29
ATOM     28  OXT UNL     1      15.186   9.450  20.894  0.00  0.00    +0.000 OA
ATOM     29  C   UNL     1      15.459   9.141  22.035  0.00  0.00    +0.000 C 
BRANCH  29  30
ATOM     30  O   UNL     1      15.493   9.961  23.102  0.00  0.00    +0.000 OA
ATOM     31  H   UNL     1      17.106   7.736  23.548  0.00  0.00    +0.000 HD
ENDBRANCH  29  30
ENDBRANCH   7  29
BRANCH   9  32
ATOM     32  C   UNL     1      18.206   8.032  21.855  0.00  0.00    +0.000 C 
ATOM     33  C   UNL     1      18.606   7.882  20.595  0.00  0.00    +0.000 C 
BRANCH  33  34
ATOM     34  C   UNL     1      19.768   8.635  20.010  0.00  0.00    +0.000 C 
BRANCH  34  35
ATOM     35  C   UNL     1      19.340   9.729  19.018  0.00  0.00    +0.000 C 
BRANCH  35  36
ATOM     36  C   UNL     1      19.928   9.614  17.598  0.00  0.00    +0.000 C 
BRANCH  36  37
ATOM     37  N   UNL     1      18.867   9.892  16.628  0.00  0.00    +0.000 NA
ATOM     38  H   UNL     1      24.994  13.307  19.646  0.00  0.00    +0.000 HD
ATOM     39  H   UNL     1      24.994  13.307  19.646  0.00  0.00    +0.000 HD
ENDBRANCH  36  37
BRANCH  36  40
ATOM     40  S   UNL     1      20.630   7.938  17.312  0.00  0.00    +0.000 S 
BRANCH  40  41
ATOM     41  N   UNL     1      22.365   8.328  17.133  0.00  0.00    +0.000 N 
ATOM     42  C   UNL     1      23.007   8.904  18.158  0.00  0.00    +0.000 A 
ATOM     43  C   UNL     1      22.976   8.033  15.978  0.00  0.00    +0.000 A 
ATOM     44  C   UNL     1      24.353   9.219  18.046  0.00  0.00    +0.000 A 
ATOM     45  C   UNL     1      24.322   8.324  15.809  0.00  0.00    +0.000 A 
ATOM     46  C   UNL     1      25.014   8.924  16.858  0.00  0.00    +0.000 A 
ENDBRANCH  40  41
ENDBRANCH  36  40
ENDBRANCH  35  36
ENDBRANCH  34  35
ENDBRANCH  33  34
ENDBRANCH   9  32
TORSDOF 15
ENDMDL
MODEL 4
REMARK minimizedAffinity -7.52071428
REMARK minimizedRMSD -1
REMARK  Name = 88718442
REMARK  15 active torsions:
REMARK  status: ('A' for Active; 'I' for Inactive)
REMARK    1  A    between atoms: S_2  and  N_14
REMARK    2  A    between atoms: S_2  and  C_29
REMARK    3  A    between atoms: O_5  and  C_22
REMARK    4  A    between atoms: O_8  and  N_11
REMARK    5  A    between atoms: O_8  and  C_33
REMARK    6  A    between atoms: N_10  and  CA_17
REMARK    7  A    between atoms: N_12  and  C_29
REMARK    8  A    between atoms: CA_19  and  C_22
REMARK    9  A    between atoms: C_21  and  C_23
REMARK   10  A    between atoms: C_24  and  C_27
REMARK   11  A    between atoms: C_25  and  C_26
REMARK   12  A    between atoms: C_26  and  C_28
REMARK   13  A    between atoms: C_27  and  C_30
REMARK   14  A    between atoms: C_28  and  C_29
REMARK   15  A    between atoms: C_33  and  C_39
REMARK                            x       y       z     vdW  Elec       q    Type
REMARK                         _______ _______ _______ _____ _____    ______ ____
ROOT
ATOM      1  S   UNL     1      18.551   6.167  18.713  0.00  0.00    +0.000 S 
ATOM      2  O   UNL     1      18.741  10.820  18.635  0.00  0.00    +0.000 OA
ATOM      3  N   UNL     1      18.311   8.681  19.532  0.00  0.00    +0.000 N 
ATOM      4  C   UNL     1      19.329   7.654  19.387  0.00  0.00    +0.000 C 
ATOM      5  CA  UNL     1      19.999   8.598  18.358  0.00  0.00    +0.000 C 
ATOM      6  C   UNL     1      18.954   9.648  18.841  0.00  0.00    +0.000 C 
ATOM      7  CA  UNL     1      17.152   8.505  20.220  0.00  0.00    +0.000 C 
ATOM      8  C   UNL     1      17.425   5.978  20.140  0.00  0.00    +0.000 C 
ATOM      9  C   UNL     1      16.721   7.267  20.562  0.00  0.00    +0.000 C 
ENDROOT
BRANCH   5  11
ATOM     10  O   UNL     1      22.398   8.158  16.703  0.00  0.00    +0.000 OA
ATOM     11  N   UNL     1      21.380   8.941  18.670  0.00  0.00    +0.000 N 
ATOM     12  C   UNL     1      22.435   8.682  17.806  0.00  0.00    +0.000 C 
ATOM     13  H   UNL     1      19.149   7.460  19.698  0.00  0.00    +0.000 HD
BRANCH  12  15
ATOM     14  N   UNL     1      23.840   9.745  19.485  0.00  0.00    +0.000 NA
ATOM     15  C   UNL     1      23.768   9.131  18.343  0.00  0.00    +0.000 C 
BRANCH  15  19
ATOM     16  S   UNL     1      26.895   9.052  15.876  0.00  0.00    +0.000 S 
ATOM     17  N   UNL     1      25.720   7.707  17.745  0.00  0.00    +0.000 NA
ATOM     18  N   UNL     1      27.669   6.705  16.859  0.00  0.00    +0.000 N 
ATOM     19  C   UNL     1      24.992   8.863  17.542  0.00  0.00    +0.000 A 
ATOM     20  C   UNL     1      25.473   9.714  16.570  0.00  0.00    +0.000 A 
ATOM     21  C   UNL     1      26.745   7.700  16.923  0.00  0.00    +0.000 A 
ATOM     22  H   UNL     1      20.433   9.241  14.493  0.00  0.00    +0.000 HD
ATOM     23  H   UNL     1      20.433   9.241  14.493  0.00  0.00    +0.000 HD
ENDBRANCH  15  19
BRANCH  14  24
ATOM     24  O   UNL     1      25.161  10.086  19.808  0.00  0.00    +0.000 OA
BRANCH  24  25
ATOM     25  C   UNL     1      25.157  10.706  21.086  0.00  0.00    +0.000 C 
BRANCH  25  26
ATOM     26  C   UNL     1      25.521   9.687  22.114  0.00  0.00    +0.000 C 
ATOM     27  C   UNL     1      25.742   9.971  23.402  0.00  0.00    +0.000 C 
ENDBRANCH  25  26
ENDBRANCH  24  25
ENDBRANCH  14  24
ENDBRANCH  12  15
ENDBRANCH   5  11
BRANCH   7  29
ATOM     28  OXT UNL     1      16.476  10.346  21.563  0.00  0.00    +0.000 OA
ATOM     29  C   UNL     1      16.380   9.722  20.527  0.00  0.00    +0.000 C 
BRANCH  29  30
ATOM     30  O   UNL     1      15.572  10.010  19.489  0.00  0.00    +0.000 OA
ATOM     31  H   UNL     1      16.221   7.302  19.480  0.00  0.00    +0.000 HD
ENDBRANCH  29  30
ENDBRANCH   7  29
BRANCH   9  32
ATOM     32  C   UNL     1      15.532   6.999  21.350  0.00  0.00    +0.000 C 
ATOM     33  C   UNL     1      15.574   6.742  22.655  0.00  0.00    +0.000 C 
BRANCH  33  34
ATOM     34  C   UNL     1      14.344   6.468  23.474  0.00  0.00    +0.000 C 
BRANCH  34  35
ATOM     35  C   UNL     1      13.333   5.557  22.758  0.00  0.00    +0.000 C 
BRANCH  35  36
ATOM     36  C   UNL     1      12.266   4.903  23.658  0.00  0.00    +0.000 C 
BRANCH  36  37
ATOM     37  N   UNL     1      12.891   4.524  24.926  0.00  0.00    +0.000 NA
ATOM     38  H   UNL     1       8.249   9.908  22.136  0.00  0.00    +0.000 HD
ATOM     39  H   UNL     1       8.249   9.908  22.136  0.00  0.00    +0.000 HD
ENDBRANCH  36  37
BRANCH  36  40
ATOM     40  S   UNL     1      11.536   3.425  22.841  0.00  0.00    +0.000 S 
BRANCH  40  41
ATOM     41  N   UNL     1       9.814   3.615  23.284  0.00  0.00    +0.000 N 
ATOM     42  C   UNL     1       9.282   2.775  24.182  0.00  0.00    +0.000 A 
ATOM     43  C   UNL     1       9.104   4.592  22.705  0.00  0.00    +0.000 A 
ATOM     44  C   UNL     1       7.949   2.899  24.545  0.00  0.00    +0.000 A 
ATOM     45  C   UNL     1       7.765   4.764  23.030  0.00  0.00    +0.000 A 
ATOM     46  C   UNL     1       7.186   3.906  23.960  0.00  0.00    +0.000 A 
ENDBRANCH  40  41
ENDBRANCH  36  40
ENDBRANCH  35  36
ENDBRANCH  34  35
ENDBRANCH  33  34
ENDBRANCH   9  32
TORSDOF 15
ENDMDL
MODEL 5
REMARK minimizedAffinity -7.39993429
REMARK minimizedRMSD -1
REMARK  Name = 88718442
REMARK  15 active torsions:
REMARK  status: ('A' for Active; 'I' for Inactive)
REMARK    1  A    between atoms: S_2  and  N_14
REMARK    2  A    between atoms: S_2  and  C_29
REMARK    3  A    between atoms: O_5  and  C_22
REMARK    4  A    between atoms: O_8  and  N_11
REMARK    5  A    between atoms: O_8  and  C_33
REMARK    6  A    between atoms: N_10  and  CA_17
REMARK    7  A    between atoms: N_12  and  C_29
REMARK    8  A    between atoms: CA_19  and  C_22
REMARK    9  A    between atoms: C_21  and  C_23
REMARK   10  A    between atoms: C_24  and  C_27
REMARK   11  A    between atoms: C_25  and  C_26
REMARK   12  A    between atoms: C_26  and  C_28
REMARK   13  A    between atoms: C_27  and  C_30
REMARK   14  A    between atoms: C_28  and  C_29
REMARK   15  A    between atoms: C_33  and  C_39
REMARK                            x       y       z     vdW  Elec       q    Type
REMARK                         _______ _______ _______ _____ _____    ______ ____
ROOT
ATOM      1  S   UNL     1      16.592   5.254  24.002  0.00  0.00    +0.000 S 
ATOM      2  O   UNL     1      13.007   8.226  23.931  0.00  0.00    +0.000 OA
ATOM      3  N   UNL     1      14.970   7.176  23.152  0.00  0.00    +0.000 N 
ATOM      4  C   UNL     1      15.042   5.725  23.197  0.00  0.00    +0.000 C 
ATOM      5  CA  UNL     1      13.792   5.788  24.111  0.00  0.00    +0.000 C 
ATOM      6  C   UNL     1      13.755   7.298  23.732  0.00  0.00    +0.000 C 
ATOM      7  CA  UNL     1      15.939   7.964  22.617  0.00  0.00    +0.000 C 
ATOM      8  C   UNL     1      17.624   6.063  22.730  0.00  0.00    +0.000 C 
ATOM      9  C   UNL     1      17.178   7.478  22.363  0.00  0.00    +0.000 C 
ENDROOT
BRANCH   5  11
ATOM     10  O   UNL     1      12.365   3.593  25.465  0.00  0.00    +0.000 OA
ATOM     11  N   UNL     1      12.654   5.020  23.622  0.00  0.00    +0.000 N 
ATOM     12  C   UNL     1      12.061   4.001  24.354  0.00  0.00    +0.000 C 
ATOM     13  H   UNL     1      15.334   5.757  22.913  0.00  0.00    +0.000 HD
BRANCH  12  15
ATOM     14  N   UNL     1       9.893   4.078  23.252  0.00  0.00    +0.000 NA
ATOM     15  C   UNL     1      10.900   3.358  23.646  0.00  0.00    +0.000 C 
BRANCH  15  19
ATOM     16  S   UNL     1      10.623  -0.616  23.661  0.00  0.00    +0.000 S 
ATOM     17  N   UNL     1      11.510   1.374  22.271  0.00  0.00    +0.000 NA
ATOM     18  N   UNL     1      11.882  -0.759  21.322  0.00  0.00    +0.000 N 
ATOM     19  C   UNL     1      10.926   1.889  23.412  0.00  0.00    +0.000 A 
ATOM     20  C   UNL     1      10.391   0.964  24.284  0.00  0.00    +0.000 A 
ATOM     21  C   UNL     1      11.409   0.064  22.296  0.00  0.00    +0.000 A 
ATOM     22  H   UNL     1      13.631   3.420  27.946  0.00  0.00    +0.000 HD
ATOM     23  H   UNL     1      13.631   3.420  27.946  0.00  0.00    +0.000 HD
ENDBRANCH  15  19
BRANCH  14  24
ATOM     24  O   UNL     1       8.913   3.298  22.621  0.00  0.00    +0.000 OA
BRANCH  24  25
ATOM     25  C   UNL     1       7.927   4.173  22.093  0.00  0.00    +0.000 C 
BRANCH  25  26
ATOM     26  C   UNL     1       7.299   4.924  23.219  0.00  0.00    +0.000 C 
ATOM     27  C   UNL     1       6.032   4.762  23.613  0.00  0.00    +0.000 C 
ENDBRANCH  25  26
ENDBRANCH  24  25
ENDBRANCH  14  24
ENDBRANCH  12  15
ENDBRANCH   5  11
BRANCH   7  29
ATOM     28  OXT UNL     1      15.603  10.238  23.225  0.00  0.00    +0.000 OA
ATOM     29  C   UNL     1      15.580   9.373  22.374  0.00  0.00    +0.000 C 
BRANCH  29  30
ATOM     30  O   UNL     1      15.232   9.527  21.082  0.00  0.00    +0.000 OA
ATOM     31  H   UNL     1      14.886   6.877  21.862  0.00  0.00    +0.000 HD
ENDBRANCH  29  30
ENDBRANCH   7  29
BRANCH   9  32
ATOM     32  C   UNL     1      18.245   8.235  21.735  0.00  0.00    +0.000 C 
ATOM     33  C   UNL     1      18.405   8.298  20.416  0.00  0.00    +0.000 C 
BRANCH  33  34
ATOM     34  C   UNL     1      19.507   9.083  19.762  0.00  0.00    +0.000 C 
BRANCH  34  35
ATOM     35  C   UNL     1      20.910   8.647  20.216  0.00  0.00    +0.000 C 
BRANCH  35  36
ATOM     36  C   UNL     1      21.968   8.526  19.101  0.00  0.00    +0.000 C 
BRANCH  36  37
ATOM     37  N   UNL     1      21.408   9.070  17.862  0.00  0.00    +0.000 NA
ATOM     38  H   UNL     1      26.370  11.028  23.327  0.00  0.00    +0.000 HD
ATOM     39  H   UNL     1      26.370  11.028  23.327  0.00  0.00    +0.000 HD
ENDBRANCH  36  37
BRANCH  36  40
ATOM     40  S   UNL     1      22.467   6.772  18.857  0.00  0.00    +0.000 S 
BRANCH  40  41
ATOM     41  N   UNL     1      20.868   5.986  18.719  0.00  0.00    +0.000 N 
ATOM     42  C   UNL     1      20.401   5.281  19.758  0.00  0.00    +0.000 A 
ATOM     43  C   UNL     1      20.179   6.123  17.578  0.00  0.00    +0.000 A 
ATOM     44  C   UNL     1      19.164   4.660  19.678  0.00  0.00    +0.000 A 
ATOM     45  C   UNL     1      18.934   5.525  17.441  0.00  0.00    +0.000 A 
ATOM     46  C   UNL     1      18.425   4.787  18.505  0.00  0.00    +0.000 A 
ENDBRANCH  40  41
ENDBRANCH  36  40
ENDBRANCH  35  36
ENDBRANCH  34  35
ENDBRANCH  33  34
ENDBRANCH   9  32
TORSDOF 15
ENDMDL
MODEL 6
REMARK minimizedAffinity -7.32797623
REMARK minimizedRMSD -1
REMARK  Name = 88718442
REMARK  15 active torsions:
REMARK  status: ('A' for Active; 'I' for Inactive)
REMARK    1  A    between atoms: S_2  and  N_14
REMARK    2  A    between atoms: S_2  and  C_29
REMARK    3  A    between atoms: O_5  and  C_22
REMARK    4  A    between atoms: O_8  and  N_11
REMARK    5  A    between atoms: O_8  and  C_33
REMARK    6  A    between atoms: N_10  and  CA_17
REMARK    7  A    between atoms: N_12  and  C_29
REMARK    8  A    between atoms: CA_19  and  C_22
REMARK    9  A    between atoms: C_21  and  C_23
REMARK   10  A    between atoms: C_24  and  C_27
REMARK   11  A    between atoms: C_25  and  C_26
REMARK   12  A    between atoms: C_26  and  C_28
REMARK   13  A    between atoms: C_27  and  C_30
REMARK   14  A    between atoms: C_28  and  C_29
REMARK   15  A    between atoms: C_33  and  C_39
REMARK                            x       y       z     vdW  Elec       q    Type
REMARK                         _______ _______ _______ _____ _____    ______ ____
ROOT
ATOM      1  S   UNL     1      16.723   5.301  23.993  0.00  0.00    +0.000 S 
ATOM      2  O   UNL     1      13.105   8.234  24.004  0.00  0.00    +0.000 OA
ATOM      3  N   UNL     1      15.055   7.198  23.176  0.00  0.00    +0.000 N 
ATOM      4  C   UNL     1      15.144   5.749  23.231  0.00  0.00    +0.000 C 
ATOM      5  CA  UNL     1      13.922   5.805  24.181  0.00  0.00    +0.000 C 
ATOM      6  C   UNL     1      13.857   7.312  23.791  0.00  0.00    +0.000 C 
ATOM      7  CA  UNL     1      16.000   7.992  22.605  0.00  0.00    +0.000 C 
ATOM      8  C   UNL     1      17.708   6.110  22.684  0.00  0.00    +0.000 C 
ATOM      9  C   UNL     1      17.236   7.517  22.320  0.00  0.00    +0.000 C 
ENDROOT
BRANCH   5  11
ATOM     10  O   UNL     1      12.530   3.639  25.615  0.00  0.00    +0.000 OA
ATOM     11  N   UNL     1      12.779   5.021  23.733  0.00  0.00    +0.000 N 
ATOM     12  C   UNL     1      12.204   4.019  24.501  0.00  0.00    +0.000 C 
ATOM     13  H   UNL     1      15.442   5.751  22.955  0.00  0.00    +0.000 HD
BRANCH  12  15
ATOM     14  N   UNL     1       9.979   4.045  23.514  0.00  0.00    +0.000 NA
ATOM     15  C   UNL     1      11.032   3.354  23.830  0.00  0.00    +0.000 C 
BRANCH  15  19
ATOM     16  S   UNL     1      10.910  -0.627  23.720  0.00  0.00    +0.000 S 
ATOM     17  N   UNL     1      11.642   1.443  22.355  0.00  0.00    +0.000 NA
ATOM     18  N   UNL     1      12.042  -0.641  21.313  0.00  0.00    +0.000 N 
ATOM     19  C   UNL     1      11.102   1.896  23.543  0.00  0.00    +0.000 A 
ATOM     20  C   UNL     1      10.652   0.922  24.410  0.00  0.00    +0.000 A 
ATOM     21  C   UNL     1      11.592   0.130  22.339  0.00  0.00    +0.000 A 
ATOM     22  H   UNL     1      13.993   3.384  27.976  0.00  0.00    +0.000 HD
ATOM     23  H   UNL     1      13.993   3.384  27.976  0.00  0.00    +0.000 HD
ENDBRANCH  15  19
BRANCH  14  24
ATOM     24  O   UNL     1       8.998   3.249  22.906  0.00  0.00    +0.000 OA
BRANCH  24  25
ATOM     25  C   UNL     1       8.129   4.101  22.175  0.00  0.00    +0.000 C 
BRANCH  25  26
ATOM     26  C   UNL     1       7.343   4.926  23.139  0.00  0.00    +0.000 C 
ATOM     27  C   UNL     1       6.482   4.420  24.028  0.00  0.00    +0.000 C 
ENDBRANCH  25  26
ENDBRANCH  24  25
ENDBRANCH  14  24
ENDBRANCH  12  15
ENDBRANCH   5  11
BRANCH   7  29
ATOM     28  OXT UNL     1      15.630  10.261  23.211  0.00  0.00    +0.000 OA
ATOM     29  C   UNL     1      15.618   9.395  22.362  0.00  0.00    +0.000 C 
BRANCH  29  30
ATOM     30  O   UNL     1      15.264   9.541  21.071  0.00  0.00    +0.000 OA
ATOM     31  H   UNL     1      14.962   6.887  21.855  0.00  0.00    +0.000 HD
ENDBRANCH  29  30
ENDBRANCH   7  29
BRANCH   9  32
ATOM     32  C   UNL     1      18.275   8.280  21.654  0.00  0.00    +0.000 C 
ATOM     33  C   UNL     1      18.470   8.239  20.338  0.00  0.00    +0.000 C 
BRANCH  33  34
ATOM     34  C   UNL     1      19.544   9.030  19.645  0.00  0.00    +0.000 C 
BRANCH  34  35
ATOM     35  C   UNL     1      20.914   8.917  20.332  0.00  0.00    +0.000 C 
BRANCH  35  36
ATOM     36  C   UNL     1      22.141   9.058  19.409  0.00  0.00    +0.000 C 
BRANCH  36  37
ATOM     37  N   UNL     1      21.705   8.888  18.021  0.00  0.00    +0.000 NA
ATOM     38  H   UNL     1      23.780  14.474  22.797  0.00  0.00    +0.000 HD
ATOM     39  H   UNL     1      23.780  14.474  22.797  0.00  0.00    +0.000 HD
ENDBRANCH  36  37
BRANCH  36  40
ATOM     40  S   UNL     1      23.426   7.811  19.830  0.00  0.00    +0.000 S 
BRANCH  40  41
ATOM     41  N   UNL     1      24.451   8.753  20.951  0.00  0.00    +0.000 N 
ATOM     42  C   UNL     1      25.377   8.111  21.675  0.00  0.00    +0.000 A 
ATOM     43  C   UNL     1      24.264  10.077  21.037  0.00  0.00    +0.000 A 
ATOM     44  C   UNL     1      26.186   8.817  22.553  0.00  0.00    +0.000 A 
ATOM     45  C   UNL     1      25.045  10.835  21.898  0.00  0.00    +0.000 A 
ATOM     46  C   UNL     1      26.015  10.194  22.663  0.00  0.00    +0.000 A 
ENDBRANCH  40  41
ENDBRANCH  36  40
ENDBRANCH  35  36
ENDBRANCH  34  35
ENDBRANCH  33  34
ENDBRANCH   9  32
TORSDOF 15
ENDMDL
MODEL 7
REMARK minimizedAffinity -7.28787708
REMARK minimizedRMSD -1
REMARK  Name = 88718442
REMARK  15 active torsions:
REMARK  status: ('A' for Active; 'I' for Inactive)
REMARK    1  A    between atoms: S_2  and  N_14
REMARK    2  A    between atoms: S_2  and  C_29
REMARK    3  A    between atoms: O_5  and  C_22
REMARK    4  A    between atoms: O_8  and  N_11
REMARK    5  A    between atoms: O_8  and  C_33
REMARK    6  A    between atoms: N_10  and  CA_17
REMARK    7  A    between atoms: N_12  and  C_29
REMARK    8  A    between atoms: CA_19  and  C_22
REMARK    9  A    between atoms: C_21  and  C_23
REMARK   10  A    between atoms: C_24  and  C_27
REMARK   11  A    between atoms: C_25  and  C_26
REMARK   12  A    between atoms: C_26  and  C_28
REMARK   13  A    between atoms: C_27  and  C_30
REMARK   14  A    between atoms: C_28  and  C_29
REMARK   15  A    between atoms: C_33  and  C_39
REMARK                            x       y       z     vdW  Elec       q    Type
REMARK                         _______ _______ _______ _____ _____    ______ ____
ROOT
ATOM      1  S   UNL     1      18.764   6.534  19.542  0.00  0.00    +0.000 S 
ATOM      2  O   UNL     1      19.146   9.905  16.352  0.00  0.00    +0.000 OA
ATOM      3  N   UNL     1      18.959   8.971  18.510  0.00  0.00    +0.000 N 
ATOM      4  C   UNL     1      19.805   7.840  18.849  0.00  0.00    +0.000 C 
ATOM      5  CA  UNL     1      20.109   7.736  17.333  0.00  0.00    +0.000 C 
ATOM      6  C   UNL     1      19.360   9.098  17.225  0.00  0.00    +0.000 C 
ATOM      7  CA  UNL     1      18.115   9.574  19.389  0.00  0.00    +0.000 C 
ATOM      8  C   UNL     1      18.214   7.566  20.946  0.00  0.00    +0.000 C 
ATOM      9  C   UNL     1      17.773   8.976  20.555  0.00  0.00    +0.000 C 
ENDROOT
BRANCH   5  11
ATOM     10  O   UNL     1      21.757   5.703  15.977  0.00  0.00    +0.000 OA
ATOM     11  N   UNL     1      21.526   7.804  17.001  0.00  0.00    +0.000 N 
ATOM     12  C   UNL     1      22.200   6.776  16.357  0.00  0.00    +0.000 C 
ATOM     13  H   UNL     1      19.732   8.013  19.230  0.00  0.00    +0.000 HD
BRANCH  12  15
ATOM     14  N   UNL     1      24.031   8.283  15.806  0.00  0.00    +0.000 NA
ATOM     15  C   UNL     1      23.654   7.078  16.115  0.00  0.00    +0.000 C 
BRANCH  15  19
ATOM     16  S   UNL     1      26.295   4.277  17.139  0.00  0.00    +0.000 S 
ATOM     17  N   UNL     1      25.067   5.295  15.105  0.00  0.00    +0.000 NA
ATOM     18  N   UNL     1      26.551   3.525  14.601  0.00  0.00    +0.000 N 
ATOM     19  C   UNL     1      24.646   5.975  16.231  0.00  0.00    +0.000 A 
ATOM     20  C   UNL     1      25.201   5.566  17.425  0.00  0.00    +0.000 A 
ATOM     21  C   UNL     1      25.936   4.377  15.465  0.00  0.00    +0.000 A 
ATOM     22  H   UNL     1      26.591  10.836  17.908  0.00  0.00    +0.000 HD
ATOM     23  H   UNL     1      26.591  10.836  17.908  0.00  0.00    +0.000 HD
ENDBRANCH  15  19
BRANCH  14  24
ATOM     24  O   UNL     1      25.418   8.360  15.615  0.00  0.00    +0.000 OA
BRANCH  24  25
ATOM     25  C   UNL     1      25.886   9.537  16.257  0.00  0.00    +0.000 C 
BRANCH  25  26
ATOM     26  C   UNL     1      26.688   9.144  17.453  0.00  0.00    +0.000 C 
ATOM     27  C   UNL     1      26.189   9.044  18.689  0.00  0.00    +0.000 C 
ENDBRANCH  25  26
ENDBRANCH  24  25
ENDBRANCH  14  24
ENDBRANCH  12  15
ENDBRANCH   5  11
BRANCH   7  29
ATOM     28  OXT UNL     1      18.143  11.936  19.123  0.00  0.00    +0.000 OA
ATOM     29  C   UNL     1      17.565  10.880  18.981  0.00  0.00    +0.000 C 
BRANCH  29  30
ATOM     30  O   UNL     1      16.344  10.699  18.441  0.00  0.00    +0.000 OA
ATOM     31  H   UNL     1      16.968   8.581  20.137  0.00  0.00    +0.000 HD
ENDBRANCH  29  30
ENDBRANCH   7  29
BRANCH   9  32
ATOM     32  C   UNL     1      16.932   9.580  21.573  0.00  0.00    +0.000 C 
ATOM     33  C   UNL     1      16.120   8.871  22.352  0.00  0.00    +0.000 C 
BRANCH  33  34
ATOM     34  C   UNL     1      15.251   9.493  23.409  0.00  0.00    +0.000 C 
BRANCH  34  35
ATOM     35  C   UNL     1      13.827   8.914  23.436  0.00  0.00    +0.000 C 
BRANCH  35  36
ATOM     36  C   UNL     1      13.322   8.312  22.109  0.00  0.00    +0.000 C 
BRANCH  36  37
ATOM     37  N   UNL     1      12.231   9.145  21.602  0.00  0.00    +0.000 NA
ATOM     38  H   UNL     1      19.619   7.799  20.215  0.00  0.00    +0.000 HD
ATOM     39  H   UNL     1      19.619   7.799  20.215  0.00  0.00    +0.000 HD
ENDBRANCH  36  37
BRANCH  36  40
ATOM     40  S   UNL     1      12.743   6.582  22.352  0.00  0.00    +0.000 S 
BRANCH  40  41
ATOM     41  N   UNL     1      14.298   5.702  22.323  0.00  0.00    +0.000 N 
ATOM     42  C   UNL     1      14.971   5.539  23.470  0.00  0.00    +0.000 A 
ATOM     43  C   UNL     1      14.749   5.229  21.153  0.00  0.00    +0.000 A 
ATOM     44  C   UNL     1      16.180   4.860  23.476  0.00  0.00    +0.000 A 
ATOM     45  C   UNL     1      15.953   4.541  21.099  0.00  0.00    +0.000 A 
ATOM     46  C   UNL     1      16.673   4.357  22.276  0.00  0.00    +0.000 A 
ENDBRANCH  40  41
ENDBRANCH  36  40
ENDBRANCH  35  36
ENDBRANCH  34  35
ENDBRANCH  33  34
ENDBRANCH   9  32
TORSDOF 15
ENDMDL
MODEL 8
REMARK minimizedAffinity -7.27370834
REMARK minimizedRMSD -1
REMARK  Name = 88718442
REMARK  15 active torsions:
REMARK  status: ('A' for Active; 'I' for Inactive)
REMARK    1  A    between atoms: S_2  and  N_14
REMARK    2  A    between atoms: S_2  and  C_29
REMARK    3  A    between atoms: O_5  and  C_22
REMARK    4  A    between atoms: O_8  and  N_11
REMARK    5  A    between atoms: O_8  and  C_33
REMARK    6  A    between atoms: N_10  and  CA_17
REMARK    7  A    between atoms: N_12  and  C_29
REMARK    8  A    between atoms: CA_19  and  C_22
REMARK    9  A    between atoms: C_21  and  C_23
REMARK   10  A    between atoms: C_24  and  C_27
REMARK   11  A    between atoms: C_25  and  C_26
REMARK   12  A    between atoms: C_26  and  C_28
REMARK   13  A    between atoms: C_27  and  C_30
REMARK   14  A    between atoms: C_28  and  C_29
REMARK   15  A    between atoms: C_33  and  C_39
REMARK                            x       y       z     vdW  Elec       q    Type
REMARK                         _______ _______ _______ _____ _____    ______ ____
ROOT
ATOM      1  S   UNL     1      18.677   6.109  19.411  0.00  0.00    +0.000 S 
ATOM      2  O   UNL     1      18.662  10.654  18.393  0.00  0.00    +0.000 OA
ATOM      3  N   UNL     1      18.264   8.717  19.679  0.00  0.00    +0.000 N 
ATOM      4  C   UNL     1      19.335   7.745  19.814  0.00  0.00    +0.000 C 
ATOM      5  CA  UNL     1      20.037   8.500  18.658  0.00  0.00    +0.000 C 
ATOM      6  C   UNL     1      18.913   9.562  18.847  0.00  0.00    +0.000 C 
ATOM      7  CA  UNL     1      17.065   8.615  20.313  0.00  0.00    +0.000 C 
ATOM      8  C   UNL     1      17.457   6.144  20.771  0.00  0.00    +0.000 C 
ATOM      9  C   UNL     1      16.666   7.448  20.873  0.00  0.00    +0.000 C 
ENDROOT
BRANCH   5  11
ATOM     10  O   UNL     1      22.573   7.002  18.576  0.00  0.00    +0.000 OA
ATOM     11  N   UNL     1      21.374   8.980  18.981  0.00  0.00    +0.000 N 
ATOM     12  C   UNL     1      22.502   8.176  18.905  0.00  0.00    +0.000 C 
ATOM     13  H   UNL     1      18.745   8.741  20.103  0.00  0.00    +0.000 HD
BRANCH  12  15
ATOM     14  N   UNL     1      23.811   9.639  20.344  0.00  0.00    +0.000 NA
ATOM     15  C   UNL     1      23.771   8.894  19.281  0.00  0.00    +0.000 C 
BRANCH  15  19
ATOM     16  S   UNL     1      27.195   7.992  17.456  0.00  0.00    +0.000 S 
ATOM     17  N   UNL     1      25.090   9.479  17.253  0.00  0.00    +0.000 NA
ATOM     18  N   UNL     1      26.658   9.713  15.500  0.00  0.00    +0.000 N 
ATOM     19  C   UNL     1      24.968   8.738  18.413  0.00  0.00    +0.000 A 
ATOM     20  C   UNL     1      26.010   7.878  18.690  0.00  0.00    +0.000 A 
ATOM     21  C   UNL     1      26.224   9.167  16.667  0.00  0.00    +0.000 A 
ATOM     22  H   UNL     1      26.163  10.544  23.466  0.00  0.00    +0.000 HD
ATOM     23  H   UNL     1      26.163  10.544  23.466  0.00  0.00    +0.000 HD
ENDBRANCH  15  19
BRANCH  14  24
ATOM     24  O   UNL     1      25.072  10.225  20.520  0.00  0.00    +0.000 OA
BRANCH  24  25
ATOM     25  C   UNL     1      25.058  10.944  21.744  0.00  0.00    +0.000 C 
BRANCH  25  26
ATOM     26  C   UNL     1      25.677  10.096  22.805  0.00  0.00    +0.000 C 
ATOM     27  C   UNL     1      25.451  10.252  24.114  0.00  0.00    +0.000 C 
ENDBRANCH  25  26
ENDBRANCH  24  25
ENDBRANCH  14  24
ENDBRANCH  12  15
ENDBRANCH   5  11
BRANCH   7  29
ATOM     28  OXT UNL     1      15.483  10.137  19.403  0.00  0.00    +0.000 OA
ATOM     29  C   UNL     1      16.218   9.821  20.314  0.00  0.00    +0.000 C 
BRANCH  29  30
ATOM     30  O   UNL     1      16.398  10.489  21.470  0.00  0.00    +0.000 OA
ATOM     31  H   UNL     1      18.617   8.899  20.923  0.00  0.00    +0.000 HD
ENDBRANCH  29  30
ENDBRANCH   7  29
BRANCH   9  32
ATOM     32  C   UNL     1      15.435   7.274  21.621  0.00  0.00    +0.000 C 
ATOM     33  C   UNL     1      15.347   7.502  22.930  0.00  0.00    +0.000 C 
BRANCH  33  34
ATOM     34  C   UNL     1      14.072   7.327  23.707  0.00  0.00    +0.000 C 
BRANCH  34  35
ATOM     35  C   UNL     1      13.047   6.433  22.990  0.00  0.00    +0.000 C 
BRANCH  35  36
ATOM     36  C   UNL     1      13.068   4.942  23.380  0.00  0.00    +0.000 C 
BRANCH  36  37
ATOM     37  N   UNL     1      11.725   4.390  23.195  0.00  0.00    +0.000 NA
ATOM     38  H   UNL     1      18.546   4.310  19.761  0.00  0.00    +0.000 HD
ATOM     39  H   UNL     1      18.546   4.310  19.761  0.00  0.00    +0.000 HD
ENDBRANCH  36  37
BRANCH  36  40
ATOM     40  S   UNL     1      13.609   4.728  25.126  0.00  0.00    +0.000 S 
BRANCH  40  41
ATOM     41  N   UNL     1      15.365   4.475  24.903  0.00  0.00    +0.000 N 
ATOM     42  C   UNL     1      15.799   3.930  23.759  0.00  0.00    +0.000 A 
ATOM     43  C   UNL     1      16.198   4.840  25.887  0.00  0.00    +0.000 A 
ATOM     44  C   UNL     1      17.156   3.722  23.559  0.00  0.00    +0.000 A 
ATOM     45  C   UNL     1      17.566   4.657  25.742  0.00  0.00    +0.000 A 
ATOM     46  C   UNL     1      18.045   4.091  24.564  0.00  0.00    +0.000 A 
ENDBRANCH  40  41
ENDBRANCH  36  40
ENDBRANCH  35  36
ENDBRANCH  34  35
ENDBRANCH  33  34
ENDBRANCH   9  32
TORSDOF 15
ENDMDL
MODEL 9
REMARK minimizedAffinity -7.23000097
REMARK minimizedRMSD -1
REMARK  Name = 88718442
REMARK  15 active torsions:
REMARK  status: ('A' for Active; 'I' for Inactive)
REMARK    1  A    between atoms: S_2  and  N_14
REMARK    2  A    between atoms: S_2  and  C_29
REMARK    3  A    between atoms: O_5  and  C_22
REMARK    4  A    between atoms: O_8  and  N_11
REMARK    5  A    between atoms: O_8  and  C_33
REMARK    6  A    between atoms: N_10  and  CA_17
REMARK    7  A    between atoms: N_12  and  C_29
REMARK    8  A    between atoms: CA_19  and  C_22
REMARK    9  A    between atoms: C_21  and  C_23
REMARK   10  A    between atoms: C_24  and  C_27
REMARK   11  A    between atoms: C_25  and  C_26
REMARK   12  A    between atoms: C_26  and  C_28
REMARK   13  A    between atoms: C_27  and  C_30
REMARK   14  A    between atoms: C_28  and  C_29
REMARK   15  A    between atoms: C_33  and  C_39
REMARK                            x       y       z     vdW  Elec       q    Type
REMARK                         _______ _______ _______ _____ _____    ______ ____
ROOT
ATOM      1  S   UNL     1      18.590   5.938  18.681  0.00  0.00    +0.000 S 
ATOM      2  O   UNL     1      18.853  10.500  17.781  0.00  0.00    +0.000 OA
ATOM      3  N   UNL     1      18.486   8.561  19.073  0.00  0.00    +0.000 N 
ATOM      4  C   UNL     1      19.464   7.489  19.003  0.00  0.00    +0.000 C 
ATOM      5  CA  UNL     1      20.034   8.219  17.761  0.00  0.00    +0.000 C 
ATOM      6  C   UNL     1      19.067   9.373  18.162  0.00  0.00    +0.000 C 
ATOM      7  CA  UNL     1      17.407   8.547  19.899  0.00  0.00    +0.000 C 
ATOM      8  C   UNL     1      17.624   6.035  20.230  0.00  0.00    +0.000 C 
ATOM      9  C   UNL     1      16.994   7.401  20.494  0.00  0.00    +0.000 C 
ENDROOT
BRANCH   5  11
ATOM     10  O   UNL     1      22.169   7.718  15.792  0.00  0.00    +0.000 OA
ATOM     11  N   UNL     1      21.447   8.559  17.862  0.00  0.00    +0.000 N 
ATOM     12  C   UNL     1      22.365   8.270  16.863  0.00  0.00    +0.000 C 
ATOM     13  H   UNL     1      19.381   7.123  19.240  0.00  0.00    +0.000 HD
BRANCH  12  15
ATOM     14  N   UNL     1      24.555   9.138  16.250  0.00  0.00    +0.000 NA
ATOM     15  C   UNL     1      23.763   8.723  17.192  0.00  0.00    +0.000 C 
BRANCH  15  19
ATOM     16  S   UNL     1      25.086   7.894  20.857  0.00  0.00    +0.000 S 
ATOM     17  N   UNL     1      24.217   9.827  19.376  0.00  0.00    +0.000 NA
ATOM     18  N   UNL     1      24.783  10.433  21.590  0.00  0.00    +0.000 N 
ATOM     19  C   UNL     1      24.218   8.679  18.607  0.00  0.00    +0.000 A 
ATOM     20  C   UNL     1      24.656   7.533  19.237  0.00  0.00    +0.000 A 
ATOM     21  C   UNL     1      24.656   9.532  20.580  0.00  0.00    +0.000 A 
ATOM     22  H   UNL     1      19.830   5.514  17.632  0.00  0.00    +0.000 HD
ATOM     23  H   UNL     1      19.830   5.514  17.632  0.00  0.00    +0.000 HD
ENDBRANCH  15  19
BRANCH  14  24
ATOM     24  O   UNL     1      25.811   9.508  16.753  0.00  0.00    +0.000 OA
BRANCH  24  25
ATOM     25  C   UNL     1      26.698   9.662  15.655  0.00  0.00    +0.000 C 
BRANCH  25  26
ATOM     26  C   UNL     1      27.901   8.811  15.888  0.00  0.00    +0.000 C 
ATOM     27  C   UNL     1      27.887   7.670  16.585  0.00  0.00    +0.000 C 
ENDBRANCH  25  26
ENDBRANCH  24  25
ENDBRANCH  14  24
ENDBRANCH  12  15
ENDBRANCH   5  11
BRANCH   7  29
ATOM     28  OXT UNL     1      15.765  10.185  19.380  0.00  0.00    +0.000 OA
ATOM     29  C   UNL     1      16.694   9.825  20.071  0.00  0.00    +0.000 C 
BRANCH  29  30
ATOM     30  O   UNL     1      17.240  10.504  21.099  0.00  0.00    +0.000 OA
ATOM     31  H   UNL     1      19.085   8.702  20.049  0.00  0.00    +0.000 HD
ENDBRANCH  29  30
ENDBRANCH   7  29
BRANCH   9  32
ATOM     32  C   UNL     1      15.894   7.315  21.437  0.00  0.00    +0.000 C 
ATOM     33  C   UNL     1      16.074   7.270  22.754  0.00  0.00    +0.000 C 
BRANCH  33  34
ATOM     34  C   UNL     1      14.937   7.183  23.733  0.00  0.00    +0.000 C 
BRANCH  34  35
ATOM     35  C   UNL     1      14.884   5.840  24.478  0.00  0.00    +0.000 C 
BRANCH  35  36
ATOM     36  C   UNL     1      13.479   5.235  24.671  0.00  0.00    +0.000 C 
BRANCH  36  37
ATOM     37  N   UNL     1      13.165   5.225  26.101  0.00  0.00    +0.000 NA
ATOM     38  H   UNL     1      11.376   9.157  19.803  0.00  0.00    +0.000 HD
ATOM     39  H   UNL     1      11.376   9.157  19.803  0.00  0.00    +0.000 HD
ENDBRANCH  36  37
BRANCH  36  40
ATOM     40  S   UNL     1      13.401   3.527  23.990  0.00  0.00    +0.000 S 
BRANCH  40  41
ATOM     41  N   UNL     1      11.638   3.236  24.020  0.00  0.00    +0.000 N 
ATOM     42  C   UNL     1      10.844   4.001  23.259  0.00  0.00    +0.000 A 
ATOM     43  C   UNL     1      11.158   2.260  24.803  0.00  0.00    +0.000 A 
ATOM     44  C   UNL     1       9.471   3.798  23.263  0.00  0.00    +0.000 A 
ATOM     45  C   UNL     1       9.794   2.011  24.846  0.00  0.00    +0.000 A 
ATOM     46  C   UNL     1       8.945   2.791  24.066  0.00  0.00    +0.000 A 
ENDBRANCH  40  41
ENDBRANCH  36  40
ENDBRANCH  35  36
ENDBRANCH  34  35
ENDBRANCH  33  34
ENDBRANCH   9  32
TORSDOF 15
ENDMDL
MODEL 10
REMARK minimizedAffinity -7.14629889
REMARK minimizedRMSD -1
REMARK  Name = 88718442
REMARK  15 active torsions:
REMARK  status: ('A' for Active; 'I' for Inactive)
REMARK    1  A    between atoms: S_2  and  N_14
REMARK    2  A    between atoms: S_2  and  C_29
REMARK    3  A    between atoms: O_5  and  C_22
REMARK    4  A    between atoms: O_8  and  N_11
REMARK    5  A    between atoms: O_8  and  C_33
REMARK    6  A    between atoms: N_10  and  CA_17
REMARK    7  A    between atoms: N_12  and  C_29
REMARK    8  A    between atoms: CA_19  and  C_22
REMARK    9  A    between atoms: C_21  and  C_23
REMARK   10  A    between atoms: C_24  and  C_27
REMARK   11  A    between atoms: C_25  and  C_26
REMARK   12  A    between atoms: C_26  and  C_28
REMARK   13  A    between atoms: C_27  and  C_30
REMARK   14  A    between atoms: C_28  and  C_29
REMARK   15  A    between atoms: C_33  and  C_39
REMARK                            x       y       z     vdW  Elec       q    Type
REMARK                         _______ _______ _______ _____ _____    ______ ____
ROOT
ATOM      1  S   UNL     1      17.496   5.690  23.643  0.00  0.00    +0.000 S 
ATOM      2  O   UNL     1      13.428   7.454  25.068  0.00  0.00    +0.000 OA
ATOM      3  N   UNL     1      15.211   7.038  23.580  0.00  0.00    +0.000 N 
ATOM      4  C   UNL     1      15.698   5.676  23.450  0.00  0.00    +0.000 C 
ATOM      5  CA  UNL     1      14.878   5.362  24.726  0.00  0.00    +0.000 C 
ATOM      6  C   UNL     1      14.290   6.792  24.539  0.00  0.00    +0.000 C 
ATOM      7  CA  UNL     1      15.672   8.080  22.839  0.00  0.00    +0.000 C 
ATOM      8  C   UNL     1      17.753   6.770  22.192  0.00  0.00    +0.000 C 
ATOM      9  C   UNL     1      16.830   7.987  22.142  0.00  0.00    +0.000 C 
ENDROOT
BRANCH   5  11
ATOM     10  O   UNL     1      13.015   4.279  26.737  0.00  0.00    +0.000 OA
ATOM     11  N   UNL     1      13.906   4.289  24.564  0.00  0.00    +0.000 N 
ATOM     12  C   UNL     1      13.076   3.861  25.591  0.00  0.00    +0.000 C 
ATOM     13  H   UNL     1      16.705   4.843  24.271  0.00  0.00    +0.000 HD
BRANCH  12  15
ATOM     14  N   UNL     1      11.047   3.006  24.554  0.00  0.00    +0.000 NA
ATOM     15  C   UNL     1      12.153   2.745  25.184  0.00  0.00    +0.000 C 
BRANCH  15  19
ATOM     16  S   UNL     1      13.484  -1.002  25.432  0.00  0.00    +0.000 S 
ATOM     17  N   UNL     1      12.128   0.785  26.718  0.00  0.00    +0.000 NA
ATOM     18  N   UNL     1      12.364  -1.289  27.828  0.00  0.00    +0.000 N 
ATOM     19  C   UNL     1      12.527   1.345  25.520  0.00  0.00    +0.000 A 
ATOM     20  C   UNL     1      13.270   0.530  24.692  0.00  0.00    +0.000 A 
ATOM     21  C   UNL     1      12.576  -0.449  26.780  0.00  0.00    +0.000 A 
ATOM     22  H   UNL     1       9.405   1.741  21.012  0.00  0.00    +0.000 HD
ATOM     23  H   UNL     1       9.405   1.741  21.012  0.00  0.00    +0.000 HD
ENDBRANCH  15  19
BRANCH  14  24
ATOM     24  O   UNL     1      10.324   1.839  24.269  0.00  0.00    +0.000 OA
BRANCH  24  25
ATOM     25  C   UNL     1       9.320   2.164  23.319  0.00  0.00    +0.000 C 
BRANCH  25  26
ATOM     26  C   UNL     1       8.837   3.551  23.586  0.00  0.00    +0.000 C 
ATOM     27  C   UNL     1       8.274   4.337  22.663  0.00  0.00    +0.000 C 
ENDBRANCH  25  26
ENDBRANCH  24  25
ENDBRANCH  14  24
ENDBRANCH  12  15
ENDBRANCH   5  11
BRANCH   7  29
ATOM     28  OXT UNL     1      13.754   9.419  22.414  0.00  0.00    +0.000 OA
ATOM     29  C   UNL     1      14.872   9.317  22.876  0.00  0.00    +0.000 C 
BRANCH  29  30
ATOM     30  O   UNL     1      15.577  10.286  23.491  0.00  0.00    +0.000 OA
ATOM     31  H   UNL     1      17.295   8.357  22.452  0.00  0.00    +0.000 HD
ENDBRANCH  29  30
ENDBRANCH   7  29
BRANCH   9  32
ATOM     32  C   UNL     1      17.355   9.028  21.278  0.00  0.00    +0.000 C 
ATOM     33  C   UNL     1      18.654   9.165  21.020  0.00  0.00    +0.000 C 
BRANCH  33  34
ATOM     34  C   UNL     1      19.200  10.240  20.123  0.00  0.00    +0.000 C 
BRANCH  34  35
ATOM     35  C   UNL     1      18.593  10.214  18.711  0.00  0.00    +0.000 C 
BRANCH  35  36
ATOM     36  C   UNL     1      19.526   9.718  17.589  0.00  0.00    +0.000 C 
BRANCH  36  37
ATOM     37  N   UNL     1      18.916  10.039  16.297  0.00  0.00    +0.000 NA
ATOM     38  H   UNL     1      24.538  12.525  20.829  0.00  0.00    +0.000 HD
ATOM     39  H   UNL     1      24.538  12.525  20.829  0.00  0.00    +0.000 HD
ENDBRANCH  36  37
BRANCH  36  40
ATOM     40  S   UNL     1      19.810   7.905  17.725  0.00  0.00    +0.000 S 
BRANCH  40  41
ATOM     41  N   UNL     1      21.273   7.873  18.751  0.00  0.00    +0.000 N 
ATOM     42  C   UNL     1      21.412   6.889  19.649  0.00  0.00    +0.000 A 
ATOM     43  C   UNL     1      22.192   8.835  18.594  0.00  0.00    +0.000 A 
ATOM     44  C   UNL     1      22.537   6.839  20.459  0.00  0.00    +0.000 A 
ATOM     45  C   UNL     1      23.339   8.836  19.375  0.00  0.00    +0.000 A 
ATOM     46  C   UNL     1      23.509   7.825  20.317  0.00  0.00    +0.000 A 
ENDBRANCH  40  41
ENDBRANCH  36  40
ENDBRANCH  35  36
ENDBRANCH  34  35
ENDBRANCH  33  34
ENDBRANCH   9  32
TORSDOF 15
ENDMDL
MODEL 11
REMARK minimizedAffinity -7.07005644
REMARK minimizedRMSD -1
REMARK  Name = 88718442
REMARK  15 active torsions:
REMARK  status: ('A' for Active; 'I' for Inactive)
REMARK    1  A    between atoms: S_2  and  N_14
REMARK    2  A    between atoms: S_2  and  C_29
REMARK    3  A    between atoms: O_5  and  C_22
REMARK    4  A    between atoms: O_8  and  N_11
REMARK    5  A    between atoms: O_8  and  C_33
REMARK    6  A    between atoms: N_10  and  CA_17
REMARK    7  A    between atoms: N_12  and  C_29
REMARK    8  A    between atoms: CA_19  and  C_22
REMARK    9  A    between atoms: C_21  and  C_23
REMARK   10  A    between atoms: C_24  and  C_27
REMARK   11  A    between atoms: C_25  and  C_26
REMARK   12  A    between atoms: C_26  and  C_28
REMARK   13  A    between atoms: C_27  and  C_30
REMARK   14  A    between atoms: C_28  and  C_29
REMARK   15  A    between atoms: C_33  and  C_39
REMARK                            x       y       z     vdW  Elec       q    Type
REMARK                         _______ _______ _______ _____ _____    ______ ____
ROOT
ATOM      1  S   UNL     1      16.794   5.829  23.789  0.00  0.00    +0.000 S 
ATOM      2  O   UNL     1      13.215   8.583  22.650  0.00  0.00    +0.000 OA
ATOM      3  N   UNL     1      15.259   7.445  22.348  0.00  0.00    +0.000 N 
ATOM      4  C   UNL     1      15.337   6.048  22.740  0.00  0.00    +0.000 C 
ATOM      5  CA  UNL     1      13.995   6.280  23.479  0.00  0.00    +0.000 C 
ATOM      6  C   UNL     1      13.988   7.659  22.754  0.00  0.00    +0.000 C 
ATOM      7  CA  UNL     1      16.274   8.119  21.745  0.00  0.00    +0.000 C 
ATOM      8  C   UNL     1      17.952   6.353  22.477  0.00  0.00    +0.000 C 
ATOM      9  C   UNL     1      17.538   7.628  21.743  0.00  0.00    +0.000 C 
ENDROOT
BRANCH   5  11
ATOM     10  O   UNL     1      12.489   4.371  25.144  0.00  0.00    +0.000 OA
ATOM     11  N   UNL     1      12.923   5.382  23.070  0.00  0.00    +0.000 N 
ATOM     12  C   UNL     1      12.284   4.521  23.949  0.00  0.00    +0.000 C 
ATOM     13  H   UNL     1      15.643   6.055  22.456  0.00  0.00    +0.000 HD
BRANCH  12  15
ATOM     14  N   UNL     1      10.062   4.234  22.996  0.00  0.00    +0.000 NA
ATOM     15  C   UNL     1      11.206   3.697  23.297  0.00  0.00    +0.000 C 
BRANCH  15  19
ATOM     16  S   UNL     1      11.569  -0.268  23.158  0.00  0.00    +0.000 S 
ATOM     17  N   UNL     1      12.168   1.894  21.874  0.00  0.00    +0.000 NA
ATOM     18  N   UNL     1      12.905  -0.111  20.862  0.00  0.00    +0.000 N 
ATOM     19  C   UNL     1      11.474   2.262  23.011  0.00  0.00    +0.000 A 
ATOM     20  C   UNL     1      11.068   1.228  23.828  0.00  0.00    +0.000 A 
ATOM     21  C   UNL     1      12.277   0.585  21.848  0.00  0.00    +0.000 A 
ATOM     22  H   UNL     1      13.762   4.012  27.693  0.00  0.00    +0.000 HD
ATOM     23  H   UNL     1      13.762   4.012  27.693  0.00  0.00    +0.000 HD
ENDBRANCH  15  19
BRANCH  14  24
ATOM     24  O   UNL     1       9.193   3.307  22.404  0.00  0.00    +0.000 OA
BRANCH  24  25
ATOM     25  C   UNL     1       8.038   4.004  21.964  0.00  0.00    +0.000 C 
BRANCH  25  26
ATOM     26  C   UNL     1       7.499   4.806  23.101  0.00  0.00    +0.000 C 
ATOM     27  C   UNL     1       6.220   4.781  23.494  0.00  0.00    +0.000 C 
ENDBRANCH  25  26
ENDBRANCH  24  25
ENDBRANCH  14  24
ENDBRANCH  12  15
ENDBRANCH   5  11
BRANCH   7  29
ATOM     28  OXT UNL     1      15.517   9.557  20.011  0.00  0.00    +0.000 OA
ATOM     29  C   UNL     1      15.933   9.419  21.142  0.00  0.00    +0.000 C 
BRANCH  29  30
ATOM     30  O   UNL     1      16.158  10.398  22.040  0.00  0.00    +0.000 OA
ATOM     31  H   UNL     1      17.706   8.165  22.645  0.00  0.00    +0.000 HD
ENDBRANCH  29  30
ENDBRANCH   7  29
BRANCH   9  32
ATOM     32  C   UNL     1      18.660   8.253  21.069  0.00  0.00    +0.000 C 
ATOM     33  C   UNL     1      18.750   8.337  19.744  0.00  0.00    +0.000 C 
BRANCH  33  34
ATOM     34  C   UNL     1      19.910   8.986  19.042  0.00  0.00    +0.000 C 
BRANCH  34  35
ATOM     35  C   UNL     1      21.140   9.163  19.948  0.00  0.00    +0.000 C 
BRANCH  35  36
ATOM     36  C   UNL     1      22.432   8.471  19.469  0.00  0.00    +0.000 C 
BRANCH  36  37
ATOM     37  N   UNL     1      22.428   7.088  19.951  0.00  0.00    +0.000 NA
ATOM     38  H   UNL     1      21.273  10.970  13.476  0.00  0.00    +0.000 HD
ATOM     39  H   UNL     1      21.273  10.970  13.476  0.00  0.00    +0.000 HD
ENDBRANCH  36  37
BRANCH  36  40
ATOM     40  S   UNL     1      23.920   9.358  20.089  0.00  0.00    +0.000 S 
BRANCH  40  41
ATOM     41  N   UNL     1      24.959   9.321  18.635  0.00  0.00    +0.000 N 
ATOM     42  C   UNL     1      26.279   9.496  18.779  0.00  0.00    +0.000 A 
ATOM     43  C   UNL     1      24.388   9.120  17.439  0.00  0.00    +0.000 A 
ATOM     44  C   UNL     1      27.110   9.473  17.669  0.00  0.00    +0.000 A 
ATOM     45  C   UNL     1      25.170   9.086  16.293  0.00  0.00    +0.000 A 
ATOM     46  C   UNL     1      26.545   9.265  16.414  0.00  0.00    +0.000 A 
ENDBRANCH  40  41
ENDBRANCH  36  40
ENDBRANCH  35  36
ENDBRANCH  34  35
ENDBRANCH  33  34
ENDBRANCH   9  32
TORSDOF 15
ENDMDL
MODEL 12
REMARK minimizedAffinity -7.06751347
REMARK minimizedRMSD -1
REMARK  Name = 88718442
REMARK  15 active torsions:
REMARK  status: ('A' for Active; 'I' for Inactive)
REMARK    1  A    between atoms: S_2  and  N_14
REMARK    2  A    between atoms: S_2  and  C_29
REMARK    3  A    between atoms: O_5  and  C_22
REMARK    4  A    between atoms: O_8  and  N_11
REMARK    5  A    between atoms: O_8  and  C_33
REMARK    6  A    between atoms: N_10  and  CA_17
REMARK    7  A    between atoms: N_12  and  C_29
REMARK    8  A    between atoms: CA_19  and  C_22
REMARK    9  A    between atoms: C_21  and  C_23
REMARK   10  A    between atoms: C_24  and  C_27
REMARK   11  A    between atoms: C_25  and  C_26
REMARK   12  A    between atoms: C_26  and  C_28
REMARK   13  A    between atoms: C_27  and  C_30
REMARK   14  A    between atoms: C_28  and  C_29
REMARK   15  A    between atoms: C_33  and  C_39
REMARK                            x       y       z     vdW  Elec       q    Type
REMARK                         _______ _______ _______ _____ _____    ______ ____
ROOT
ATOM      1  S   UNL     1      18.196   5.573  19.472  0.00  0.00    +0.000 S 
ATOM      2  O   UNL     1      18.276   9.981  17.972  0.00  0.00    +0.000 OA
ATOM      3  N   UNL     1      18.042   8.222  19.526  0.00  0.00    +0.000 N 
ATOM      4  C   UNL     1      19.043   7.169  19.534  0.00  0.00    +0.000 C 
ATOM      5  CA  UNL     1      19.518   7.742  18.175  0.00  0.00    +0.000 C 
ATOM      6  C   UNL     1      18.544   8.919  18.482  0.00  0.00    +0.000 C 
ATOM      7  CA  UNL     1      17.013   8.294  20.412  0.00  0.00    +0.000 C 
ATOM      8  C   UNL     1      17.321   5.852  21.051  0.00  0.00    +0.000 C 
ATOM      9  C   UNL     1      16.669   7.228  21.175  0.00  0.00    +0.000 C 
ENDROOT
BRANCH   5  11
ATOM     10  O   UNL     1      21.440   7.411  15.965  0.00  0.00    +0.000 OA
ATOM     11  N   UNL     1      20.924   8.121  18.144  0.00  0.00    +0.000 N 
ATOM     12  C   UNL     1      21.737   7.914  17.038  0.00  0.00    +0.000 C 
ATOM     13  H   UNL     1      19.058   6.551  19.653  0.00  0.00    +0.000 HD
BRANCH  12  15
ATOM     14  N   UNL     1      23.864   8.771  16.223  0.00  0.00    +0.000 NA
ATOM     15  C   UNL     1      23.149   8.393  17.240  0.00  0.00    +0.000 C 
BRANCH  15  19
ATOM     16  S   UNL     1      24.732   7.742  20.837  0.00  0.00    +0.000 S 
ATOM     17  N   UNL     1      23.785   9.606  19.318  0.00  0.00    +0.000 NA
ATOM     18  N   UNL     1      24.526  10.323  21.446  0.00  0.00    +0.000 N 
ATOM     19  C   UNL     1      23.709   8.418  18.618  0.00  0.00    +0.000 A 
ATOM     20  C   UNL     1      24.175   7.300  19.277  0.00  0.00    +0.000 A 
ATOM     21  C   UNL     1      24.308   9.370  20.500  0.00  0.00    +0.000 A 
ATOM     22  H   UNL     1      19.210   5.294  18.153  0.00  0.00    +0.000 HD
ATOM     23  H   UNL     1      19.210   5.294  18.153  0.00  0.00    +0.000 HD
ENDBRANCH  15  19
BRANCH  14  24
ATOM     24  O   UNL     1      25.149   9.174  16.613  0.00  0.00    +0.000 OA
BRANCH  24  25
ATOM     25  C   UNL     1      25.765   9.814  15.506  0.00  0.00    +0.000 C 
BRANCH  25  26
ATOM     26  C   UNL     1      27.219   9.478  15.506  0.00  0.00    +0.000 C 
ATOM     27  C   UNL     1      27.980   9.449  16.605  0.00  0.00    +0.000 C 
ENDBRANCH  25  26
ENDBRANCH  24  25
ENDBRANCH  14  24
ENDBRANCH  12  15
ENDBRANCH   5  11
BRANCH   7  29
ATOM     28  OXT UNL     1      15.386   9.871  19.694  0.00  0.00    +0.000 OA
ATOM     29  C   UNL     1      16.276   9.569  20.461  0.00  0.00    +0.000 C 
BRANCH  29  30
ATOM     30  O   UNL     1      16.751  10.319  21.474  0.00  0.00    +0.000 OA
ATOM     31  H   UNL     1      18.677   8.485  20.651  0.00  0.00    +0.000 HD
ENDBRANCH  29  30
ENDBRANCH   7  29
BRANCH   9  32
ATOM     32  C   UNL     1      15.629   7.244  22.187  0.00  0.00    +0.000 C 
ATOM     33  C   UNL     1      14.402   6.780  21.969  0.00  0.00    +0.000 C 
BRANCH  33  34
ATOM     34  C   UNL     1      13.324   6.792  23.016  0.00  0.00    +0.000 C 
BRANCH  34  35
ATOM     35  C   UNL     1      12.203   5.776  22.741  0.00  0.00    +0.000 C 
BRANCH  35  36
ATOM     36  C   UNL     1      12.424   4.362  23.314  0.00  0.00    +0.000 C 
BRANCH  36  37
ATOM     37  N   UNL     1      11.157   3.630  23.254  0.00  0.00    +0.000 NA
ATOM     38  H   UNL     1      17.843   3.945  19.577  0.00  0.00    +0.000 HD
ATOM     39  H   UNL     1      17.843   3.945  19.577  0.00  0.00    +0.000 HD
ENDBRANCH  36  37
BRANCH  36  40
ATOM     40  S   UNL     1      13.032   4.444  25.048  0.00  0.00    +0.000 S 
BRANCH  40  41
ATOM     41  N   UNL     1      14.795   4.299  24.791  0.00  0.00    +0.000 N 
ATOM     42  C   UNL     1      15.623   4.982  25.592  0.00  0.00    +0.000 A 
ATOM     43  C   UNL     1      15.239   3.510  23.803  0.00  0.00    +0.000 A 
ATOM     44  C   UNL     1      16.996   4.888  25.415  0.00  0.00    +0.000 A 
ATOM     45  C   UNL     1      16.603   3.377  23.580  0.00  0.00    +0.000 A 
ATOM     46  C   UNL     1      17.486   4.076  24.397  0.00  0.00    +0.000 A 
ENDBRANCH  40  41
ENDBRANCH  36  40
ENDBRANCH  35  36
ENDBRANCH  34  35
ENDBRANCH  33  34
ENDBRANCH   9  32
TORSDOF 15
ENDMDL
MODEL 13
REMARK minimizedAffinity -6.97774363
REMARK minimizedRMSD -1
REMARK  Name = 88718442
REMARK  15 active torsions:
REMARK  status: ('A' for Active; 'I' for Inactive)
REMARK    1  A    between atoms: S_2  and  N_14
REMARK    2  A    between atoms: S_2  and  C_29
REMARK    3  A    between atoms: O_5  and  C_22
REMARK    4  A    between atoms: O_8  and  N_11
REMARK    5  A    between atoms: O_8  and  C_33
REMARK    6  A    between atoms: N_10  and  CA_17
REMARK    7  A    between atoms: N_12  and  C_29
REMARK    8  A    between atoms: CA_19  and  C_22
REMARK    9  A    between atoms: C_21  and  C_23
REMARK   10  A    between atoms: C_24  and  C_27
REMARK   11  A    between atoms: C_25  and  C_26
REMARK   12  A    between atoms: C_26  and  C_28
REMARK   13  A    between atoms: C_27  and  C_30
REMARK   14  A    between atoms: C_28  and  C_29
REMARK   15  A    between atoms: C_33  and  C_39
REMARK                            x       y       z     vdW  Elec       q    Type
REMARK                         _______ _______ _______ _____ _____    ______ ____
ROOT
ATOM      1  S   UNL     1      18.391   5.829  21.484  0.00  0.00    +0.000 S 
ATOM      2  O   UNL     1      18.355  10.047  19.510  0.00  0.00    +0.000 OA
ATOM      3  N   UNL     1      18.037   8.445  21.212  0.00  0.00    +0.000 N 
ATOM      4  C   UNL     1      19.102   7.492  21.472  0.00  0.00    +0.000 C 
ATOM      5  CA  UNL     1      19.718   7.960  20.130  0.00  0.00    +0.000 C 
ATOM      6  C   UNL     1      18.627   9.071  20.170  0.00  0.00    +0.000 C 
ATOM      7  CA  UNL     1      16.893   8.518  21.943  0.00  0.00    +0.000 C 
ATOM      8  C   UNL     1      17.287   6.193  22.893  0.00  0.00    +0.000 C 
ATOM      9  C   UNL     1      16.524   7.511  22.771  0.00  0.00    +0.000 C 
ENDROOT
BRANCH   5  11
ATOM     10  O   UNL     1      21.903   7.710  18.168  0.00  0.00    +0.000 OA
ATOM     11  N   UNL     1      21.083   8.456  20.238  0.00  0.00    +0.000 N 
ATOM     12  C   UNL     1      22.032   8.277  19.242  0.00  0.00    +0.000 C 
ATOM     13  H   UNL     1      19.187   6.791  21.602  0.00  0.00    +0.000 HD
BRANCH  12  15
ATOM     14  N   UNL     1      23.497   9.650  20.618  0.00  0.00    +0.000 NA
ATOM     15  C   UNL     1      23.369   8.882  19.578  0.00  0.00    +0.000 C 
BRANCH  15  19
ATOM     16  S   UNL     1      26.263   8.692  16.847  0.00  0.00    +0.000 S 
ATOM     17  N   UNL     1      25.344   7.503  18.950  0.00  0.00    +0.000 NA
ATOM     18  N   UNL     1      27.264   6.510  17.993  0.00  0.00    +0.000 N 
ATOM     19  C   UNL     1      24.531   8.591  18.697  0.00  0.00    +0.000 A 
ATOM     20  C   UNL     1      24.872   9.354  17.600  0.00  0.00    +0.000 A 
ATOM     21  C   UNL     1      26.290   7.458  18.039  0.00  0.00    +0.000 A 
ATOM     22  H   UNL     1      19.705   8.399  16.071  0.00  0.00    +0.000 HD
ATOM     23  H   UNL     1      19.705   8.399  16.071  0.00  0.00    +0.000 HD
ENDBRANCH  15  19
BRANCH  14  24
ATOM     24  O   UNL     1      24.811  10.119  20.758  0.00  0.00    +0.000 OA
BRANCH  24  25
ATOM     25  C   UNL     1      24.872  10.916  21.931  0.00  0.00    +0.000 C 
BRANCH  25  26
ATOM     26  C   UNL     1      25.668  10.190  22.964  0.00  0.00    +0.000 C 
ATOM     27  C   UNL     1      25.466  10.304  24.281  0.00  0.00    +0.000 C 
ENDBRANCH  25  26
ENDBRANCH  24  25
ENDBRANCH  14  24
ENDBRANCH  12  15
ENDBRANCH   5  11
BRANCH   7  29
ATOM     28  OXT UNL     1      16.105  10.699  22.464  0.00  0.00    +0.000 OA
ATOM     29  C   UNL     1      16.064   9.721  21.748  0.00  0.00    +0.000 C 
BRANCH  29  30
ATOM     30  O   UNL     1      15.278   9.549  20.668  0.00  0.00    +0.000 OA
ATOM     31  H   UNL     1      16.031   7.080  21.711  0.00  0.00    +0.000 HD
ENDBRANCH  29  30
ENDBRANCH   7  29
BRANCH   9  32
ATOM     32  C   UNL     1      15.356   7.540  23.631  0.00  0.00    +0.000 C 
ATOM     33  C   UNL     1      14.977   6.501  24.370  0.00  0.00    +0.000 C 
BRANCH  33  34
ATOM     34  C   UNL     1      13.769   6.529  25.264  0.00  0.00    +0.000 C 
BRANCH  34  35
ATOM     35  C   UNL     1      13.405   5.147  25.829  0.00  0.00    +0.000 C 
BRANCH  35  36
ATOM     36  C   UNL     1      13.807   3.939  24.959  0.00  0.00    +0.000 C 
BRANCH  36  37
ATOM     37  N   UNL     1      12.595   3.351  24.385  0.00  0.00    +0.000 NA
ATOM     38  H   UNL     1      18.477   7.733  22.258  0.00  0.00    +0.000 HD
ATOM     39  H   UNL     1      18.477   7.733  22.258  0.00  0.00    +0.000 HD
ENDBRANCH  36  37
BRANCH  36  40
ATOM     40  S   UNL     1      14.712   2.685  25.956  0.00  0.00    +0.000 S 
BRANCH  40  41
ATOM     41  N   UNL     1      16.403   3.187  25.667  0.00  0.00    +0.000 N 
ATOM     42  C   UNL     1      16.935   4.142  26.441  0.00  0.00    +0.000 A 
ATOM     43  C   UNL     1      17.092   2.593  24.683  0.00  0.00    +0.000 A 
ATOM     44  C   UNL     1      18.245   4.551  26.239  0.00  0.00    +0.000 A 
ATOM     45  C   UNL     1      18.407   2.961  24.436  0.00  0.00    +0.000 A 
ATOM     46  C   UNL     1      18.986   3.951  25.224  0.00  0.00    +0.000 A 
ENDBRANCH  40  41
ENDBRANCH  36  40
ENDBRANCH  35  36
ENDBRANCH  34  35
ENDBRANCH  33  34
ENDBRANCH   9  32
TORSDOF 15
ENDMDL
MODEL 14
REMARK minimizedAffinity -6.97669601
REMARK minimizedRMSD -1
REMARK  Name = 88718442
REMARK  15 active torsions:
REMARK  status: ('A' for Active; 'I' for Inactive)
REMARK    1  A    between atoms: S_2  and  N_14
REMARK    2  A    between atoms: S_2  and  C_29
REMARK    3  A    between atoms: O_5  and  C_22
REMARK    4  A    between atoms: O_8  and  N_11
REMARK    5  A    between atoms: O_8  and  C_33
REMARK    6  A    between atoms: N_10  and  CA_17
REMARK    7  A    between atoms: N_12  and  C_29
REMARK    8  A    between atoms: CA_19  and  C_22
REMARK    9  A    between atoms: C_21  and  C_23
REMARK   10  A    between atoms: C_24  and  C_27
REMARK   11  A    between atoms: C_25  and  C_26
REMARK   12  A    between atoms: C_26  and  C_28
REMARK   13  A    between atoms: C_27  and  C_30
REMARK   14  A    between atoms: C_28  and  C_29
REMARK   15  A    between atoms: C_33  and  C_39
REMARK                            x       y       z     vdW  Elec       q    Type
REMARK                         _______ _______ _______ _____ _____    ______ ____
ROOT
ATOM      1  S   UNL     1      14.686   8.359  22.792  0.00  0.00    +0.000 S 
ATOM      2  O   UNL     1      18.204   5.437  23.673  0.00  0.00    +0.000 OA
ATOM      3  N   UNL     1      16.019   6.079  23.058  0.00  0.00    +0.000 N 
ATOM      4  C   UNL     1      15.860   7.166  22.107  0.00  0.00    +0.000 C 
ATOM      5  CA  UNL     1      17.359   7.470  22.350  0.00  0.00    +0.000 C 
ATOM      6  C   UNL     1      17.367   6.126  23.138  0.00  0.00    +0.000 C 
ATOM      7  CA  UNL     1      14.983   5.357  23.561  0.00  0.00    +0.000 C 
ATOM      8  C   UNL     1      13.320   7.146  22.851  0.00  0.00    +0.000 C 
ATOM      9  C   UNL     1      13.705   5.794  23.451  0.00  0.00    +0.000 C 
ENDROOT
BRANCH   5  11
ATOM     10  O   UNL     1      18.873   9.704  21.165  0.00  0.00    +0.000 OA
ATOM     11  N   UNL     1      18.175   7.462  21.143  0.00  0.00    +0.000 N 
ATOM     12  C   UNL     1      18.846   8.584  20.679  0.00  0.00    +0.000 C 
ATOM     13  H   UNL     1      15.520   6.882  22.060  0.00  0.00    +0.000 HD
BRANCH  12  15
ATOM     14  N   UNL     1      19.017   8.243  18.275  0.00  0.00    +0.000 NA
ATOM     15  C   UNL     1      19.628   8.330  19.418  0.00  0.00    +0.000 C 
BRANCH  15  19
ATOM     16  S   UNL     1      23.430   7.255  19.926  0.00  0.00    +0.000 S 
ATOM     17  N   UNL     1      21.939   9.203  19.111  0.00  0.00    +0.000 NA
ATOM     18  N   UNL     1      24.266   9.604  18.997  0.00  0.00    +0.000 N 
ATOM     19  C   UNL     1      21.105   8.176  19.507  0.00  0.00    +0.000 A 
ATOM     20  C   UNL     1      21.730   7.040  19.977  0.00  0.00    +0.000 A 
ATOM     21  C   UNL     1      23.187   8.829  19.287  0.00  0.00    +0.000 A 
ATOM     22  H   UNL     1      18.582   7.842  24.380  0.00  0.00    +0.000 HD
ATOM     23  H   UNL     1      18.582   7.842  24.380  0.00  0.00    +0.000 HD
ENDBRANCH  15  19
BRANCH  14  24
ATOM     24  O   UNL     1      19.913   7.999  17.225  0.00  0.00    +0.000 OA
BRANCH  24  25
ATOM     25  C   UNL     1      19.714   6.666  16.777  0.00  0.00    +0.000 C 
BRANCH  25  26
ATOM     26  C   UNL     1      20.994   6.156  16.204  0.00  0.00    +0.000 C 
ATOM     27  C   UNL     1      22.121   6.874  16.134  0.00  0.00    +0.000 C 
ENDBRANCH  25  26
ENDBRANCH  24  25
ENDBRANCH  14  24
ENDBRANCH  12  15
ENDBRANCH   5  11
BRANCH   7  29
ATOM     28  OXT UNL     1      15.456   3.033  23.721  0.00  0.00    +0.000 OA
ATOM     29  C   UNL     1      15.331   4.110  24.265  0.00  0.00    +0.000 C 
BRANCH  29  30
ATOM     30  O   UNL     1      15.482   4.368  25.579  0.00  0.00    +0.000 OA
ATOM     31  H   UNL     1      13.852   6.294  24.402  0.00  0.00    +0.000 HD
ENDBRANCH  29  30
ENDBRANCH   7  29
BRANCH   9  32
ATOM     32  C   UNL     1      12.541   5.053  23.902  0.00  0.00    +0.000 C 
ATOM     33  C   UNL     1      11.796   4.313  23.086  0.00  0.00    +0.000 C 
BRANCH  33  34
ATOM     34  C   UNL     1      10.592   3.542  23.551  0.00  0.00    +0.000 C 
BRANCH  34  35
ATOM     35  C   UNL     1      10.885   2.639  24.760  0.00  0.00    +0.000 C 
BRANCH  35  36
ATOM     36  C   UNL     1       9.848   1.532  25.037  0.00  0.00    +0.000 C 
BRANCH  36  37
ATOM     37  N   UNL     1      10.506   0.231  24.909  0.00  0.00    +0.000 NA
ATOM     38  H   UNL     1       7.987   4.934  30.373  0.00  0.00    +0.000 HD
ATOM     39  H   UNL     1       7.987   4.934  30.373  0.00  0.00    +0.000 HD
ENDBRANCH  36  37
BRANCH  36  40
ATOM     40  S   UNL     1       8.434   1.650  23.866  0.00  0.00    +0.000 S 
BRANCH  40  41
ATOM     41  N   UNL     1       7.354   2.761  24.756  0.00  0.00    +0.000 N 
ATOM     42  C   UNL     1       6.766   3.763  24.090  0.00  0.00    +0.000 A 
ATOM     43  C   UNL     1       7.162   2.561  26.067  0.00  0.00    +0.000 A 
ATOM     44  C   UNL     1       5.923   4.641  24.756  0.00  0.00    +0.000 A 
ATOM     45  C   UNL     1       6.328   3.407  26.785  0.00  0.00    +0.000 A 
ATOM     46  C   UNL     1       5.705   4.457  26.118  0.00  0.00    +0.000 A 
ENDBRANCH  40  41
ENDBRANCH  36  40
ENDBRANCH  35  36
ENDBRANCH  34  35
ENDBRANCH  33  34
ENDBRANCH   9  32
TORSDOF 15
ENDMDL
MODEL 15
REMARK minimizedAffinity -6.95259953
REMARK minimizedRMSD -1
REMARK  Name = 88718442
REMARK  15 active torsions:
REMARK  status: ('A' for Active; 'I' for Inactive)
REMARK    1  A    between atoms: S_2  and  N_14
REMARK    2  A    between atoms: S_2  and  C_29
REMARK    3  A    between atoms: O_5  and  C_22
REMARK    4  A    between atoms: O_8  and  N_11
REMARK    5  A    between atoms: O_8  and  C_33
REMARK    6  A    between atoms: N_10  and  CA_17
REMARK    7  A    between atoms: N_12  and  C_29
REMARK    8  A    between atoms: CA_19  and  C_22
REMARK    9  A    between atoms: C_21  and  C_23
REMARK   10  A    between atoms: C_24  and  C_27
REMARK   11  A    between atoms: C_25  and  C_26
REMARK   12  A    between atoms: C_26  and  C_28
REMARK   13  A    between atoms: C_27  and  C_30
REMARK   14  A    between atoms: C_28  and  C_29
REMARK   15  A    between atoms: C_33  and  C_39
REMARK                            x       y       z     vdW  Elec       q    Type
REMARK                         _______ _______ _______ _____ _____    ______ ____
ROOT
ATOM      1  S   UNL     1      12.752   7.978  22.724  0.00  0.00    +0.000 S 
ATOM      2  O   UNL     1      16.448   5.762  24.489  0.00  0.00    +0.000 OA
ATOM      3  N   UNL     1      14.421   5.998  23.308  0.00  0.00    +0.000 N 
ATOM      4  C   UNL     1      14.292   7.099  22.369  0.00  0.00    +0.000 C 
ATOM      5  CA  UNL     1      15.572   7.678  23.020  0.00  0.00    +0.000 C 
ATOM      6  C   UNL     1      15.657   6.308  23.756  0.00  0.00    +0.000 C 
ATOM      7  CA  UNL     1      13.466   5.047  23.493  0.00  0.00    +0.000 C 
ATOM      8  C   UNL     1      11.711   6.515  22.383  0.00  0.00    +0.000 C 
ATOM      9  C   UNL     1      12.201   5.226  23.043  0.00  0.00    +0.000 C 
ENDROOT
BRANCH   5  11
ATOM     10  O   UNL     1      16.342  10.228  21.757  0.00  0.00    +0.000 OA
ATOM     11  N   UNL     1      16.662   7.924  22.085  0.00  0.00    +0.000 N 
ATOM     12  C   UNL     1      16.930   9.177  21.552  0.00  0.00    +0.000 C 
ATOM     13  H   UNL     1      14.331   6.289  22.434  0.00  0.00    +0.000 HD
BRANCH  12  15
ATOM     14  N   UNL     1      18.472  10.287  20.030  0.00  0.00    +0.000 NA
ATOM     15  C   UNL     1      18.107   9.185  20.614  0.00  0.00    +0.000 C 
BRANCH  15  19
ATOM     16  S   UNL     1      19.538   5.651  19.458  0.00  0.00    +0.000 S 
ATOM     17  N   UNL     1      19.978   7.612  21.084  0.00  0.00    +0.000 NA
ATOM     18  N   UNL     1      21.547   5.846  21.190  0.00  0.00    +0.000 N 
ATOM     19  C   UNL     1      18.837   7.913  20.367  0.00  0.00    +0.000 A 
ATOM     20  C   UNL     1      18.443   6.971  19.440  0.00  0.00    +0.000 A 
ATOM     21  C   UNL     1      20.433   6.444  20.689  0.00  0.00    +0.000 A 
ATOM     22  H   UNL     1      13.688   7.161  22.141  0.00  0.00    +0.000 HD
ATOM     23  H   UNL     1      13.688   7.161  22.141  0.00  0.00    +0.000 HD
ENDBRANCH  15  19
BRANCH  14  24
ATOM     24  O   UNL     1      19.580  10.088  19.194  0.00  0.00    +0.000 OA
BRANCH  24  25
ATOM     25  C   UNL     1      19.135  10.167  17.847  0.00  0.00    +0.000 C 
BRANCH  25  26
ATOM     26  C   UNL     1      19.996   9.285  17.006  0.00  0.00    +0.000 C 
ATOM     27  C   UNL     1      21.103   8.678  17.448  0.00  0.00    +0.000 C 
ENDBRANCH  25  26
ENDBRANCH  24  25
ENDBRANCH  14  24
ENDBRANCH  12  15
ENDBRANCH   5  11
BRANCH   7  29
ATOM     28  OXT UNL     1      13.720   3.706  25.439  0.00  0.00    +0.000 OA
ATOM     29  C   UNL     1      13.873   3.846  24.244  0.00  0.00    +0.000 C 
BRANCH  29  30
ATOM     30  O   UNL     1      14.429   2.959  23.396  0.00  0.00    +0.000 OA
ATOM     31  H   UNL     1      14.618   5.534  22.353  0.00  0.00    +0.000 HD
ENDBRANCH  29  30
ENDBRANCH   7  29
BRANCH   9  32
ATOM     32  C   UNL     1      11.145   4.236  23.143  0.00  0.00    +0.000 C 
ATOM     33  C   UNL     1       9.883   4.490  22.807  0.00  0.00    +0.000 C 
BRANCH  33  34
ATOM     34  C   UNL     1       8.788   3.465  22.907  0.00  0.00    +0.000 C 
BRANCH  34  35
ATOM     35  C   UNL     1       8.927   2.552  24.136  0.00  0.00    +0.000 C 
BRANCH  35  36
ATOM     36  C   UNL     1       8.283   1.157  24.012  0.00  0.00    +0.000 C 
BRANCH  36  37
ATOM     37  N   UNL     1       8.705   0.558  22.745  0.00  0.00    +0.000 NA
ATOM     38  H   UNL     1      10.201  -0.025  30.211  0.00  0.00    +0.000 HD
ATOM     39  H   UNL     1      10.201  -0.025  30.211  0.00  0.00    +0.000 HD
ENDBRANCH  36  37
BRANCH  36  40
ATOM     40  S   UNL     1       6.448   1.272  24.082  0.00  0.00    +0.000 S 
BRANCH  40  41
ATOM     41  N   UNL     1       6.237   2.400  25.452  0.00  0.00    +0.000 N 
ATOM     42  C   UNL     1       5.826   3.651  25.203  0.00  0.00    +0.000 A 
ATOM     43  C   UNL     1       6.495   1.964  26.693  0.00  0.00    +0.000 A 
ATOM     44  C   UNL     1       5.654   4.548  26.247  0.00  0.00    +0.000 A 
ATOM     45  C   UNL     1       6.339   2.817  27.776  0.00  0.00    +0.000 A 
ATOM     46  C   UNL     1       5.914   4.122  27.546  0.00  0.00    +0.000 A 
ENDBRANCH  40  41
ENDBRANCH  36  40
ENDBRANCH  35  36
ENDBRANCH  34  35
ENDBRANCH  33  34
ENDBRANCH   9  32
TORSDOF 15
ENDMDL
MODEL 16
REMARK minimizedAffinity -6.82723951
REMARK minimizedRMSD -1
REMARK  Name = 88718442
REMARK  15 active torsions:
REMARK  status: ('A' for Active; 'I' for Inactive)
REMARK    1  A    between atoms: S_2  and  N_14
REMARK    2  A    between atoms: S_2  and  C_29
REMARK    3  A    between atoms: O_5  and  C_22
REMARK    4  A    between atoms: O_8  and  N_11
REMARK    5  A    between atoms: O_8  and  C_33
REMARK    6  A    between atoms: N_10  and  CA_17
REMARK    7  A    between atoms: N_12  and  C_29
REMARK    8  A    between atoms: CA_19  and  C_22
REMARK    9  A    between atoms: C_21  and  C_23
REMARK   10  A    between atoms: C_24  and  C_27
REMARK   11  A    between atoms: C_25  and  C_26
REMARK   12  A    between atoms: C_26  and  C_28
REMARK   13  A    between atoms: C_27  and  C_30
REMARK   14  A    between atoms: C_28  and  C_29
REMARK   15  A    between atoms: C_33  and  C_39
REMARK                            x       y       z     vdW  Elec       q    Type
REMARK                         _______ _______ _______ _____ _____    ______ ____
ROOT
ATOM      1  S   UNL     1      18.708   5.822  21.176  0.00  0.00    +0.000 S 
ATOM      2  O   UNL     1      18.670  10.144  19.441  0.00  0.00    +0.000 OA
ATOM      3  N   UNL     1      18.316   8.444  21.037  0.00  0.00    +0.000 N 
ATOM      4  C   UNL     1      19.388   7.494  21.284  0.00  0.00    +0.000 C 
ATOM      5  CA  UNL     1      20.046   8.047  19.996  0.00  0.00    +0.000 C 
ATOM      6  C   UNL     1      18.934   9.137  20.055  0.00  0.00    +0.000 C 
ATOM      7  CA  UNL     1      17.144   8.456  21.726  0.00  0.00    +0.000 C 
ATOM      8  C   UNL     1      17.544   6.088  22.559  0.00  0.00    +0.000 C 
ATOM      9  C   UNL     1      16.763   7.398  22.482  0.00  0.00    +0.000 C 
ENDROOT
BRANCH   5  11
ATOM     10  O   UNL     1      22.314   7.925  18.118  0.00  0.00    +0.000 OA
ATOM     11  N   UNL     1      21.397   8.559  20.185  0.00  0.00    +0.000 N 
ATOM     12  C   UNL     1      22.389   8.442  19.222  0.00  0.00    +0.000 C 
ATOM     13  H   UNL     1      19.475   6.801  21.387  0.00  0.00    +0.000 HD
BRANCH  12  15
ATOM     14  N   UNL     1      23.750   9.862  20.655  0.00  0.00    +0.000 NA
ATOM     15  C   UNL     1      23.700   9.050  19.642  0.00  0.00    +0.000 C 
BRANCH  15  19
ATOM     16  S   UNL     1      26.802   8.705  17.166  0.00  0.00    +0.000 S 
ATOM     17  N   UNL     1      25.718   7.643  19.259  0.00  0.00    +0.000 NA
ATOM     18  N   UNL     1      27.707   6.602  18.519  0.00  0.00    +0.000 N 
ATOM     19  C   UNL     1      24.928   8.710  18.875  0.00  0.00    +0.000 A 
ATOM     20  C   UNL     1      25.355   9.406  17.764  0.00  0.00    +0.000 A 
ATOM     21  C   UNL     1      26.733   7.547  18.430  0.00  0.00    +0.000 A 
ATOM     22  H   UNL     1      20.326   8.337  15.892  0.00  0.00    +0.000 HD
ATOM     23  H   UNL     1      20.326   8.337  15.892  0.00  0.00    +0.000 HD
ENDBRANCH  15  19
BRANCH  14  24
ATOM     24  O   UNL     1      25.054  10.326  20.884  0.00  0.00    +0.000 OA
BRANCH  24  25
ATOM     25  C   UNL     1      25.086  10.936  22.166  0.00  0.00    +0.000 C 
BRANCH  25  26
ATOM     26  C   UNL     1      25.597   9.943  23.156  0.00  0.00    +0.000 C 
ATOM     27  C   UNL     1      26.265   8.833  22.825  0.00  0.00    +0.000 C 
ENDBRANCH  25  26
ENDBRANCH  24  25
ENDBRANCH  14  24
ENDBRANCH  12  15
ENDBRANCH   5  11
BRANCH   7  29
ATOM     28  OXT UNL     1      16.320  10.605  22.320  0.00  0.00    +0.000 OA
ATOM     29  C   UNL     1      16.302   9.655  21.566  0.00  0.00    +0.000 C 
BRANCH  29  30
ATOM     30  O   UNL     1      15.532   9.515  20.470  0.00  0.00    +0.000 OA
ATOM     31  H   UNL     1      16.306   7.018  21.427  0.00  0.00    +0.000 HD
ENDBRANCH  29  30
ENDBRANCH   7  29
BRANCH   9  32
ATOM     32  C   UNL     1      15.562   7.360  23.295  0.00  0.00    +0.000 C 
ATOM     33  C   UNL     1      15.351   6.434  24.227  0.00  0.00    +0.000 C 
BRANCH  33  34
ATOM     34  C   UNL     1      14.110   6.394  25.074  0.00  0.00    +0.000 C 
BRANCH  34  35
ATOM     35  C   UNL     1      13.581   4.968  25.301  0.00  0.00    +0.000 C 
BRANCH  35  36
ATOM     36  C   UNL     1      13.071   4.234  24.044  0.00  0.00    +0.000 C 
BRANCH  36  37
ATOM     37  N   UNL     1      11.683   3.827  24.270  0.00  0.00    +0.000 NA
ATOM     38  H   UNL     1      15.615   9.132  20.433  0.00  0.00    +0.000 HD
ATOM     39  H   UNL     1      15.615   9.132  20.433  0.00  0.00    +0.000 HD
ENDBRANCH  36  37
BRANCH  36  40
ATOM     40  S   UNL     1      14.114   2.763  23.676  0.00  0.00    +0.000 S 
BRANCH  40  41
ATOM     41  N   UNL     1      14.812   3.235  22.100  0.00  0.00    +0.000 N 
ATOM     42  C   UNL     1      15.833   2.523  21.606  0.00  0.00    +0.000 A 
ATOM     43  C   UNL     1      14.294   4.289  21.455  0.00  0.00    +0.000 A 
ATOM     44  C   UNL     1      16.395   2.867  20.385  0.00  0.00    +0.000 A 
ATOM     45  C   UNL     1      14.815   4.679  20.229  0.00  0.00    +0.000 A 
ATOM     46  C   UNL     1      15.877   3.958  19.693  0.00  0.00    +0.000 A 
ENDBRANCH  40  41
ENDBRANCH  36  40
ENDBRANCH  35  36
ENDBRANCH  34  35
ENDBRANCH  33  34
ENDBRANCH   9  32
TORSDOF 15
ENDMDL
MODEL 17
REMARK minimizedAffinity -6.71500731
REMARK minimizedRMSD -1
REMARK  Name = 88718442
REMARK  15 active torsions:
REMARK  status: ('A' for Active; 'I' for Inactive)
REMARK    1  A    between atoms: S_2  and  N_14
REMARK    2  A    between atoms: S_2  and  C_29
REMARK    3  A    between atoms: O_5  and  C_22
REMARK    4  A    between atoms: O_8  and  N_11
REMARK    5  A    between atoms: O_8  and  C_33
REMARK    6  A    between atoms: N_10  and  CA_17
REMARK    7  A    between atoms: N_12  and  C_29
REMARK    8  A    between atoms: CA_19  and  C_22
REMARK    9  A    between atoms: C_21  and  C_23
REMARK   10  A    between atoms: C_24  and  C_27
REMARK   11  A    between atoms: C_25  and  C_26
REMARK   12  A    between atoms: C_26  and  C_28
REMARK   13  A    between atoms: C_27  and  C_30
REMARK   14  A    between atoms: C_28  and  C_29
REMARK   15  A    between atoms: C_33  and  C_39
REMARK                            x       y       z     vdW  Elec       q    Type
REMARK                         _______ _______ _______ _____ _____    ______ ____
ROOT
ATOM      1  S   UNL     1      11.983   6.481  22.729  0.00  0.00    +0.000 S 
ATOM      2  O   UNL     1      15.354   6.169  25.928  0.00  0.00    +0.000 OA
ATOM      3  N   UNL     1      13.795   5.394  24.336  0.00  0.00    +0.000 N 
ATOM      4  C   UNL     1      13.716   6.079  23.057  0.00  0.00    +0.000 C 
ATOM      5  CA  UNL     1      14.562   7.198  23.712  0.00  0.00    +0.000 C 
ATOM      6  C   UNL     1      14.726   6.198  24.895  0.00  0.00    +0.000 C 
ATOM      7  CA  UNL     1      13.074   4.283  24.645  0.00  0.00    +0.000 C 
ATOM      8  C   UNL     1      11.463   4.729  22.729  0.00  0.00    +0.000 C 
ATOM      9  C   UNL     1      12.006   3.911  23.900  0.00  0.00    +0.000 C 
ENDROOT
BRANCH   5  11
ATOM     10  O   UNL     1      15.156   9.519  21.995  0.00  0.00    +0.000 OA
ATOM     11  N   UNL     1      15.801   7.501  23.008  0.00  0.00    +0.000 N 
ATOM     12  C   UNL     1      15.965   8.633  22.222  0.00  0.00    +0.000 C 
ATOM     13  H   UNL     1      13.818   5.446  23.274  0.00  0.00    +0.000 HD
BRANCH  12  15
ATOM     14  N   UNL     1      17.889   9.894  21.427  0.00  0.00    +0.000 NA
ATOM     15  C   UNL     1      17.333   8.733  21.601  0.00  0.00    +0.000 C 
BRANCH  15  19
ATOM     16  S   UNL     1      18.746   5.412  19.917  0.00  0.00    +0.000 S 
ATOM     17  N   UNL     1      19.028   6.949  21.976  0.00  0.00    +0.000 NA
ATOM     18  N   UNL     1      20.471   5.078  21.915  0.00  0.00    +0.000 N 
ATOM     19  C   UNL     1      18.027   7.485  21.188  0.00  0.00    +0.000 A 
ATOM     20  C   UNL     1      17.735   6.791  20.033  0.00  0.00    +0.000 A 
ATOM     21  C   UNL     1      19.479   5.856  21.404  0.00  0.00    +0.000 A 
ATOM     22  H   UNL     1      12.635   6.805  22.016  0.00  0.00    +0.000 HD
ATOM     23  H   UNL     1      12.635   6.805  22.016  0.00  0.00    +0.000 HD
ENDBRANCH  15  19
BRANCH  14  24
ATOM     24  O   UNL     1      19.153   9.779  20.832  0.00  0.00    +0.000 OA
BRANCH  24  25
ATOM     25  C   UNL     1      19.103  10.420  19.565  0.00  0.00    +0.000 C 
BRANCH  25  26
ATOM     26  C   UNL     1      19.741   9.529  18.552  0.00  0.00    +0.000 C 
ATOM     27  C   UNL     1      19.653   9.716  17.230  0.00  0.00    +0.000 C 
ENDBRANCH  25  26
ENDBRANCH  24  25
ENDBRANCH  14  24
ENDBRANCH  12  15
ENDBRANCH   5  11
BRANCH   7  29
ATOM     28  OXT UNL     1      14.303   2.642  25.848  0.00  0.00    +0.000 OA
ATOM     29  C   UNL     1      13.492   3.544  25.850  0.00  0.00    +0.000 C 
BRANCH  29  30
ATOM     30  O   UNL     1      12.834   4.030  26.920  0.00  0.00    +0.000 OA
ATOM     31  H   UNL     1      11.407   4.566  24.590  0.00  0.00    +0.000 HD
ENDBRANCH  29  30
ENDBRANCH   7  29
BRANCH   9  32
ATOM     32  C   UNL     1      11.227   2.707  24.125  0.00  0.00    +0.000 C 
ATOM     33  C   UNL     1      11.376   1.604  23.396  0.00  0.00    +0.000 C 
BRANCH  33  34
ATOM     34  C   UNL     1      10.574   0.355  23.628  0.00  0.00    +0.000 C 
BRANCH  34  35
ATOM     35  C   UNL     1      10.030   0.246  25.062  0.00  0.00    +0.000 C 
BRANCH  35  36
ATOM     36  C   UNL     1       8.512   0.465  25.223  0.00  0.00    +0.000 C 
BRANCH  36  37
ATOM     37  N   UNL     1       7.963  -0.629  26.025  0.00  0.00    +0.000 NA
ATOM     38  H   UNL     1       9.821   6.740  26.780  0.00  0.00    +0.000 HD
ATOM     39  H   UNL     1       9.821   6.740  26.780  0.00  0.00    +0.000 HD
ENDBRANCH  36  37
BRANCH  36  40
ATOM     40  S   UNL     1       7.682   0.532  23.583  0.00  0.00    +0.000 S 
BRANCH  40  41
ATOM     41  N   UNL     1       7.457   2.295  23.394  0.00  0.00    +0.000 N 
ATOM     42  C   UNL     1       7.968   2.900  22.314  0.00  0.00    +0.000 A 
ATOM     43  C   UNL     1       6.783   2.964  24.340  0.00  0.00    +0.000 A 
ATOM     44  C   UNL     1       7.809   4.268  22.142  0.00  0.00    +0.000 A 
ATOM     45  C   UNL     1       6.592   4.333  24.220  0.00  0.00    +0.000 A 
ATOM     46  C   UNL     1       7.112   4.988  23.108  0.00  0.00    +0.000 A 
ENDBRANCH  40  41
ENDBRANCH  36  40
ENDBRANCH  35  36
ENDBRANCH  34  35
ENDBRANCH  33  34
ENDBRANCH   9  32
TORSDOF 15
ENDMDL
MODEL 18
REMARK minimizedAffinity -6.62967205
REMARK minimizedRMSD -1
REMARK  Name = 88718442
REMARK  15 active torsions:
REMARK  status: ('A' for Active; 'I' for Inactive)
REMARK    1  A    between atoms: S_2  and  N_14
REMARK    2  A    between atoms: S_2  and  C_29
REMARK    3  A    between atoms: O_5  and  C_22
REMARK    4  A    between atoms: O_8  and  N_11
REMARK    5  A    between atoms: O_8  and  C_33
REMARK    6  A    between atoms: N_10  and  CA_17
REMARK    7  A    between atoms: N_12  and  C_29
REMARK    8  A    between atoms: CA_19  and  C_22
REMARK    9  A    between atoms: C_21  and  C_23
REMARK   10  A    between atoms: C_24  and  C_27
REMARK   11  A    between atoms: C_25  and  C_26
REMARK   12  A    between atoms: C_26  and  C_28
REMARK   13  A    between atoms: C_27  and  C_30
REMARK   14  A    between atoms: C_28  and  C_29
REMARK   15  A    between atoms: C_33  and  C_39
REMARK                            x       y       z     vdW  Elec       q    Type
REMARK                         _______ _______ _______ _____ _____    ______ ____
ROOT
ATOM      1  S   UNL     1      16.952   5.307  24.734  0.00  0.00    +0.000 S 
ATOM      2  O   UNL     1      13.067   7.848  25.114  0.00  0.00    +0.000 OA
ATOM      3  N   UNL     1      14.939   6.894  24.042  0.00  0.00    +0.000 N 
ATOM      4  C   UNL     1      15.216   5.484  24.260  0.00  0.00    +0.000 C 
ATOM      5  CA  UNL     1      14.197   5.562  25.423  0.00  0.00    +0.000 C 
ATOM      6  C   UNL     1      13.874   6.982  24.869  0.00  0.00    +0.000 C 
ATOM      7  CA  UNL     1      15.654   7.682  23.196  0.00  0.00    +0.000 C 
ATOM      8  C   UNL     1      17.566   6.006  23.161  0.00  0.00    +0.000 C 
ATOM      9  C   UNL     1      16.863   7.292  22.726  0.00  0.00    +0.000 C 
ENDROOT
BRANCH   5  11
ATOM     10  O   UNL     1      13.948   2.917  26.702  0.00  0.00    +0.000 OA
ATOM     11  N   UNL     1      13.095   4.614  25.320  0.00  0.00    +0.000 N 
ATOM     12  C   UNL     1      13.090   3.389  25.972  0.00  0.00    +0.000 C 
ATOM     13  H   UNL     1      14.955   6.077  23.699  0.00  0.00    +0.000 HD
BRANCH  12  15
ATOM     14  N   UNL     1      11.308   1.887  26.674  0.00  0.00    +0.000 NA
ATOM     15  C   UNL     1      11.843   2.585  25.718  0.00  0.00    +0.000 C 
BRANCH  15  19
ATOM     16  S   UNL     1      10.796   2.196  21.894  0.00  0.00    +0.000 S 
ATOM     17  N   UNL     1      10.093   3.325  24.110  0.00  0.00    +0.000 NA
ATOM     18  N   UNL     1       8.681   3.765  22.266  0.00  0.00    +0.000 N 
ATOM     19  C   UNL     1      11.243   2.602  24.357  0.00  0.00    +0.000 A 
ATOM     20  C   UNL     1      11.771   1.924  23.278  0.00  0.00    +0.000 A 
ATOM     21  C   UNL     1       9.765   3.184  22.845  0.00  0.00    +0.000 A 
ATOM     22  H   UNL     1      16.326   4.688  24.520  0.00  0.00    +0.000 HD
ATOM     23  H   UNL     1      16.326   4.688  24.520  0.00  0.00    +0.000 HD
ENDBRANCH  15  19
BRANCH  14  24
ATOM     24  O   UNL     1      10.162   1.206  26.240  0.00  0.00    +0.000 OA
BRANCH  24  25
ATOM     25  C   UNL     1       9.222   1.202  27.304  0.00  0.00    +0.000 C 
BRANCH  25  26
ATOM     26  C   UNL     1       7.979   1.891  26.849  0.00  0.00    +0.000 C 
ATOM     27  C   UNL     1       7.342   1.608  25.709  0.00  0.00    +0.000 C 
ENDBRANCH  25  26
ENDBRANCH  24  25
ENDBRANCH  14  24
ENDBRANCH  12  15
ENDBRANCH   5  11
BRANCH   7  29
ATOM     28  OXT UNL     1      15.354  10.030  23.415  0.00  0.00    +0.000 OA
ATOM     29  C   UNL     1      15.063   8.991  22.862  0.00  0.00    +0.000 C 
BRANCH  29  30
ATOM     30  O   UNL     1      14.171   8.833  21.865  0.00  0.00    +0.000 OA
ATOM     31  H   UNL     1      14.512   6.435  23.237  0.00  0.00    +0.000 HD
ENDBRANCH  29  30
ENDBRANCH   7  29
BRANCH   9  32
ATOM     32  C   UNL     1      17.656   8.045  21.772  0.00  0.00    +0.000 C 
ATOM     33  C   UNL     1      18.830   7.618  21.313  0.00  0.00    +0.000 C 
BRANCH  33  34
ATOM     34  C   UNL     1      19.652   8.393  20.322  0.00  0.00    +0.000 C 
BRANCH  34  35
ATOM     35  C   UNL     1      21.153   8.071  20.400  0.00  0.00    +0.000 C 
BRANCH  35  36
ATOM     36  C   UNL     1      22.066   8.897  19.473  0.00  0.00    +0.000 C 
BRANCH  36  37
ATOM     37  N   UNL     1      21.474   8.922  18.134  0.00  0.00    +0.000 NA
ATOM     38  H   UNL     1      22.298  13.502  24.189  0.00  0.00    +0.000 HD
ATOM     39  H   UNL     1      22.298  13.502  24.189  0.00  0.00    +0.000 HD
ENDBRANCH  36  37
BRANCH  36  40
ATOM     40  S   UNL     1      23.758   8.179  19.408  0.00  0.00    +0.000 S 
BRANCH  40  41
ATOM     41  N   UNL     1      24.514   8.978  20.817  0.00  0.00    +0.000 N 
ATOM     42  C   UNL     1      24.240  10.267  21.054  0.00  0.00    +0.000 A 
ATOM     43  C   UNL     1      25.335   8.263  21.599  0.00  0.00    +0.000 A 
ATOM     44  C   UNL     1      24.812  10.912  22.140  0.00  0.00    +0.000 A 
ATOM     45  C   UNL     1      25.936   8.856  22.701  0.00  0.00    +0.000 A 
ATOM     46  C   UNL     1      25.669  10.195  22.970  0.00  0.00    +0.000 A 
ENDBRANCH  40  41
ENDBRANCH  36  40
ENDBRANCH  35  36
ENDBRANCH  34  35
ENDBRANCH  33  34
ENDBRANCH   9  32
TORSDOF 15
ENDMDL
MODEL 19
REMARK minimizedAffinity -6.61384964
REMARK minimizedRMSD -1
REMARK  Name = 88718442
REMARK  15 active torsions:
REMARK  status: ('A' for Active; 'I' for Inactive)
REMARK    1  A    between atoms: S_2  and  N_14
REMARK    2  A    between atoms: S_2  and  C_29
REMARK    3  A    between atoms: O_5  and  C_22
REMARK    4  A    between atoms: O_8  and  N_11
REMARK    5  A    between atoms: O_8  and  C_33
REMARK    6  A    between atoms: N_10  and  CA_17
REMARK    7  A    between atoms: N_12  and  C_29
REMARK    8  A    between atoms: CA_19  and  C_22
REMARK    9  A    between atoms: C_21  and  C_23
REMARK   10  A    between atoms: C_24  and  C_27
REMARK   11  A    between atoms: C_25  and  C_26
REMARK   12  A    between atoms: C_26  and  C_28
REMARK   13  A    between atoms: C_27  and  C_30
REMARK   14  A    between atoms: C_28  and  C_29
REMARK   15  A    between atoms: C_33  and  C_39
REMARK                            x       y       z     vdW  Elec       q    Type
REMARK                         _______ _______ _______ _____ _____    ______ ____
ROOT
ATOM      1  S   UNL     1      17.622   5.306  19.410  0.00  0.00    +0.000 S 
ATOM      2  O   UNL     1      18.409   9.712  18.122  0.00  0.00    +0.000 OA
ATOM      3  N   UNL     1      17.946   7.933  19.601  0.00  0.00    +0.000 N 
ATOM      4  C   UNL     1      18.743   6.723  19.496  0.00  0.00    +0.000 C 
ATOM      5  CA  UNL     1      19.239   7.281  18.139  0.00  0.00    +0.000 C 
ATOM      6  C   UNL     1      18.509   8.591  18.563  0.00  0.00    +0.000 C 
ATOM      7  CA  UNL     1      16.996   8.133  20.553  0.00  0.00    +0.000 C 
ATOM      8  C   UNL     1      16.896   5.642  21.053  0.00  0.00    +0.000 C 
ATOM      9  C   UNL     1      16.507   7.102  21.283  0.00  0.00    +0.000 C 
ENDROOT
BRANCH   5  11
ATOM     10  O   UNL     1      20.854   7.796  15.728  0.00  0.00    +0.000 OA
ATOM     11  N   UNL     1      20.687   7.408  18.038  0.00  0.00    +0.000 N 
ATOM     12  C   UNL     1      21.340   7.653  16.839  0.00  0.00    +0.000 C 
ATOM     13  H   UNL     1      18.652   5.602  18.945  0.00  0.00    +0.000 HD
BRANCH  12  15
ATOM     14  N   UNL     1      23.393   8.886  17.276  0.00  0.00    +0.000 NA
ATOM     15  C   UNL     1      22.835   7.749  16.985  0.00  0.00    +0.000 C 
BRANCH  15  19
ATOM     16  S   UNL     1      24.931   4.366  17.161  0.00  0.00    +0.000 S 
ATOM     17  N   UNL     1      24.162   6.222  15.534  0.00  0.00    +0.000 NA
ATOM     18  N   UNL     1      25.483   4.518  14.563  0.00  0.00    +0.000 N 
ATOM     19  C   UNL     1      23.657   6.526  16.784  0.00  0.00    +0.000 A 
ATOM     20  C   UNL     1      23.968   5.637  17.791  0.00  0.00    +0.000 A 
ATOM     21  C   UNL     1      24.849   5.105  15.614  0.00  0.00    +0.000 A 
ATOM     22  H   UNL     1      25.890  10.091  20.323  0.00  0.00    +0.000 HD
ATOM     23  H   UNL     1      25.890  10.091  20.323  0.00  0.00    +0.000 HD
ENDBRANCH  15  19
BRANCH  14  24
ATOM     24  O   UNL     1      24.788   8.773  17.362  0.00  0.00    +0.000 OA
BRANCH  24  25
ATOM     25  C   UNL     1      25.227   9.562  18.458  0.00  0.00    +0.000 C 
BRANCH  25  26
ATOM     26  C   UNL     1      26.423   8.910  19.069  0.00  0.00    +0.000 C 
ATOM     27  C   UNL     1      26.619   8.793  20.387  0.00  0.00    +0.000 C 
ENDBRANCH  25  26
ENDBRANCH  24  25
ENDBRANCH  14  24
ENDBRANCH  12  15
ENDBRANCH   5  11
BRANCH   7  29
ATOM     28  OXT UNL     1      16.961  10.316  21.494  0.00  0.00    +0.000 OA
ATOM     29  C   UNL     1      16.502   9.513  20.708  0.00  0.00    +0.000 C 
BRANCH  29  30
ATOM     30  O   UNL     1      15.483   9.720  19.852  0.00  0.00    +0.000 OA
ATOM     31  H   UNL     1      15.749   7.001  20.392  0.00  0.00    +0.000 HD
ENDBRANCH  29  30
ENDBRANCH   7  29
BRANCH   9  32
ATOM     32  C   UNL     1      15.543   7.241  22.358  0.00  0.00    +0.000 C 
ATOM     33  C   UNL     1      15.728   6.715  23.567  0.00  0.00    +0.000 C 
BRANCH  33  34
ATOM     34  C   UNL     1      14.732   6.860  24.683  0.00  0.00    +0.000 C 
BRANCH  34  35
ATOM     35  C   UNL     1      13.346   6.296  24.331  0.00  0.00    +0.000 C 
BRANCH  35  36
ATOM     36  C   UNL     1      13.098   4.828  24.731  0.00  0.00    +0.000 C 
BRANCH  36  37
ATOM     37  N   UNL     1      13.974   4.494  25.855  0.00  0.00    +0.000 NA
ATOM     38  H   UNL     1       6.630   6.103  24.511  0.00  0.00    +0.000 HD
ATOM     39  H   UNL     1       6.630   6.103  24.511  0.00  0.00    +0.000 HD
ENDBRANCH  36  37
BRANCH  36  40
ATOM     40  S   UNL     1      13.421   3.699  23.314  0.00  0.00    +0.000 S 
BRANCH  40  41
ATOM     41  N   UNL     1      11.753   3.243  22.863  0.00  0.00    +0.000 N 
ATOM     42  C   UNL     1      10.733   3.974  23.333  0.00  0.00    +0.000 A 
ATOM     43  C   UNL     1      11.568   2.183  22.065  0.00  0.00    +0.000 A 
ATOM     44  C   UNL     1       9.428   3.643  22.999  0.00  0.00    +0.000 A 
ATOM     45  C   UNL     1      10.284   1.806  21.697  0.00  0.00    +0.000 A 
ATOM     46  C   UNL     1       9.206   2.547  22.172  0.00  0.00    +0.000 A 
ENDBRANCH  40  41
ENDBRANCH  36  40
ENDBRANCH  35  36
ENDBRANCH  34  35
ENDBRANCH  33  34
ENDBRANCH   9  32
TORSDOF 15
ENDMDL
MODEL 20
REMARK minimizedAffinity -6.3532691
REMARK minimizedRMSD -1
REMARK  Name = 88718442
REMARK  15 active torsions:
REMARK  status: ('A' for Active; 'I' for Inactive)
REMARK    1  A    between atoms: S_2  and  N_14
REMARK    2  A    between atoms: S_2  and  C_29
REMARK    3  A    between atoms: O_5  and  C_22
REMARK    4  A    between atoms: O_8  and  N_11
REMARK    5  A    between atoms: O_8  and  C_33
REMARK    6  A    between atoms: N_10  and  CA_17
REMARK    7  A    between atoms: N_12  and  C_29
REMARK    8  A    between atoms: CA_19  and  C_22
REMARK    9  A    between atoms: C_21  and  C_23
REMARK   10  A    between atoms: C_24  and  C_27
REMARK   11  A    between atoms: C_25  and  C_26
REMARK   12  A    between atoms: C_26  and  C_28
REMARK   13  A    between atoms: C_27  and  C_30
REMARK   14  A    between atoms: C_28  and  C_29
REMARK   15  A    between atoms: C_33  and  C_39
REMARK                            x       y       z     vdW  Elec       q    Type
REMARK                         _______ _______ _______ _____ _____    ______ ____
ROOT
ATOM      1  S   UNL     1      15.165   4.712  20.204  0.00  0.00    +0.000 S 
ATOM      2  O   UNL     1      15.966   9.083  21.600  0.00  0.00    +0.000 OA
ATOM      3  N   UNL     1      15.534   6.776  21.833  0.00  0.00    +0.000 N 
ATOM      4  C   UNL     1      16.309   5.843  21.031  0.00  0.00    +0.000 C 
ATOM      5  CA  UNL     1      16.762   7.075  20.209  0.00  0.00    +0.000 C 
ATOM      6  C   UNL     1      16.067   7.910  21.326  0.00  0.00    +0.000 C 
ATOM      7  CA  UNL     1      14.623   6.394  22.767  0.00  0.00    +0.000 C 
ATOM      8  C   UNL     1      14.506   4.055  21.776  0.00  0.00    +0.000 C 
ATOM      9  C   UNL     1      14.147   5.126  22.806  0.00  0.00    +0.000 C 
ENDROOT
BRANCH   5  11
ATOM     10  O   UNL     1      18.490   7.009  17.822  0.00  0.00    +0.000 OA
ATOM     11  N   UNL     1      18.207   7.251  20.141  0.00  0.00    +0.000 N 
ATOM     12  C   UNL     1      18.918   7.198  18.951  0.00  0.00    +0.000 C 
ATOM     13  H   UNL     1      16.200   5.646  21.416  0.00  0.00    +0.000 HD
BRANCH  12  15
ATOM     14  N   UNL     1      20.848   7.986  20.206  0.00  0.00    +0.000 NA
ATOM     15  C   UNL     1      20.396   7.414  19.131  0.00  0.00    +0.000 C 
BRANCH  15  19
ATOM     16  S   UNL     1      22.749   5.550  16.512  0.00  0.00    +0.000 S 
ATOM     17  N   UNL     1      21.909   7.892  17.213  0.00  0.00    +0.000 NA
ATOM     18  N   UNL     1      23.408   7.867  15.385  0.00  0.00    +0.000 N 
ATOM     19  C   UNL     1      21.323   6.968  18.057  0.00  0.00    +0.000 A 
ATOM     20  C   UNL     1      21.658   5.650  17.831  0.00  0.00    +0.000 A 
ATOM     21  C   UNL     1      22.680   7.257  16.359  0.00  0.00    +0.000 A 
ATOM     22  H   UNL     1      23.090   5.725  23.112  0.00  0.00    +0.000 HD
ATOM     23  H   UNL     1      23.090   5.725  23.112  0.00  0.00    +0.000 HD
ENDBRANCH  15  19
BRANCH  14  24
ATOM     24  O   UNL     1      22.245   8.102  20.184  0.00  0.00    +0.000 OA
BRANCH  24  25
ATOM     25  C   UNL     1      22.580   9.454  20.459  0.00  0.00    +0.000 C 
BRANCH  25  26
ATOM     26  C   UNL     1      24.056   9.553  20.656  0.00  0.00    +0.000 C 
ATOM     27  C   UNL     1      24.642  10.412  21.496  0.00  0.00    +0.000 C 
ENDBRANCH  25  26
ENDBRANCH  24  25
ENDBRANCH  14  24
ENDBRANCH  12  15
ENDBRANCH   5  11
BRANCH   7  29
ATOM     28  OXT UNL     1      13.186   8.142  23.496  0.00  0.00    +0.000 OA
ATOM     29  C   UNL     1      14.155   7.440  23.694  0.00  0.00    +0.000 C 
BRANCH  29  30
ATOM     30  O   UNL     1      14.969   7.480  24.766  0.00  0.00    +0.000 OA
ATOM     31  H   UNL     1      16.305   6.377  22.587  0.00  0.00    +0.000 HD
ENDBRANCH  29  30
ENDBRANCH   7  29
BRANCH   9  32
ATOM     32  C   UNL     1      13.226   4.625  23.808  0.00  0.00    +0.000 C 
ATOM     33  C   UNL     1      12.776   3.372  23.813  0.00  0.00    +0.000 C 
BRANCH  33  34
ATOM     34  C   UNL     1      11.824   2.849  24.852  0.00  0.00    +0.000 C 
BRANCH  34  35
ATOM     35  C   UNL     1      10.360   3.223  24.571  0.00  0.00    +0.000 C 
BRANCH  35  36
ATOM     36  C   UNL     1       9.866   2.965  23.133  0.00  0.00    +0.000 C 
BRANCH  36  37
ATOM     37  N   UNL     1       9.606   4.253  22.489  0.00  0.00    +0.000 NA
ATOM     38  H   UNL     1      14.850  -1.299  22.434  0.00  0.00    +0.000 HD
ATOM     39  H   UNL     1      14.850  -1.299  22.434  0.00  0.00    +0.000 HD
ENDBRANCH  36  37
BRANCH  36  40
ATOM     40  S   UNL     1       8.340   1.936  23.139  0.00  0.00    +0.000 S 
BRANCH  40  41
ATOM     41  N   UNL     1       7.343   2.825  24.327  0.00  0.00    +0.000 N 
ATOM     42  C   UNL     1       7.288   2.377  25.588  0.00  0.00    +0.000 A 
ATOM     43  C   UNL     1       6.678   3.915  23.922  0.00  0.00    +0.000 A 
ATOM     44  C   UNL     1       6.522   3.046  26.531  0.00  0.00    +0.000 A 
ATOM     45  C   UNL     1       5.896   4.626  24.822  0.00  0.00    +0.000 A 
ATOM     46  C   UNL     1       5.820   4.183  26.139  0.00  0.00    +0.000 A 
ENDBRANCH  40  41
ENDBRANCH  36  40
ENDBRANCH  35  36
ENDBRANCH  34  35
ENDBRANCH  33  34
ENDBRANCH   9  32
TORSDOF 15
ENDMDL
