MODEL 1
REMARK minimizedAffinity -8.26900578
REMARK minimizedRMSD -1
REMARK  Name = 25056706
REMARK  16 active torsions:
REMARK  status: ('A' for Active; 'I' for Inactive)
REMARK    1  A    between atoms: S_2  and  C_25
REMARK    2  A    between atoms: S_2  and  C_39
REMARK    3  A    between atoms: O_6  and  C_31
REMARK    4  A    between atoms: O_9  and  N_16
REMARK    5  A    between atoms: O_9  and  C_43
REMARK    6  A    between atoms: O_10  and  C_47
REMARK    7  A    between atoms: N_13  and  CA_20
REMARK    8  A    between atoms: N_14  and  C_33
REMARK    9  A    between atoms: CA_22  and  C_31
REMARK   10  A    between atoms: C_23  and  C_25
REMARK   11  A    between atoms: C_32  and  C_37
REMARK   12  A    between atoms: C_33  and  C_38
REMARK   13  A    between atoms: C_37  and  C_41
REMARK   14  A    between atoms: C_43  and  C_45
REMARK   15  A    between atoms: C_43  and  C_46
REMARK   16  A    between atoms: C_43  and  C_47
REMARK                            x       y       z     vdW  Elec       q    Type
REMARK                         _______ _______ _______ _____ _____    ______ ____
ROOT
ATOM      1  S   UNL     1      17.420   4.608  24.256  0.00  0.00    +0.000 S 
ATOM      2  O   UNL     1      15.678   5.779  20.105  0.00  0.00    +0.000 OA
ATOM      3  N   UNL     1      15.924   5.853  22.449  0.00  0.00    +0.000 N 
ATOM      4  C   UNL     1      17.264   5.903  23.004  0.00  0.00    +0.000 C 
ATOM      5  CA  UNL     1      17.762   5.550  21.586  0.00  0.00    +0.000 C 
ATOM      6  C   UNL     1      16.284   5.766  21.150  0.00  0.00    +0.000 C 
ATOM      7  CA  UNL     1      14.793   5.892  23.200  0.00  0.00    +0.000 C 
ATOM      8  C   UNL     1      14.825   5.688  24.538  0.00  0.00    +0.000 C 
ATOM      9  C   UNL     1      16.092   5.302  25.298  0.00  0.00    +0.000 C 
ENDROOT
BRANCH   5  11
ATOM     10  O   UNL     1      18.754   5.711  18.815  0.00  0.00    +0.000 OA
ATOM     11  N   UNL     1      18.697   6.519  21.019  0.00  0.00    +0.000 N 
ATOM     12  C   UNL     1      19.091   6.492  19.691  0.00  0.00    +0.000 C 
ATOM     13  H   UNL     1      19.810   5.559  22.727  0.00  0.00    +0.000 HD
BRANCH  12  15
ATOM     14  N   UNL     1      19.637   8.714  18.862  0.00  0.00    +0.000 NA
ATOM     15  C   UNL     1      20.064   7.586  19.342  0.00  0.00    +0.000 C 
BRANCH  15  19
ATOM     16  S   UNL     1      23.955   7.641  20.199  0.00  0.00    +0.000 S 
ATOM     17  N   UNL     1      22.091   6.147  19.209  0.00  0.00    +0.000 NA
ATOM     18  N   UNL     1      24.238   5.161  19.280  0.00  0.00    +0.000 N 
ATOM     19  C   UNL     1      21.517   7.354  19.562  0.00  0.00    +0.000 A 
ATOM     20  C   UNL     1      22.369   8.287  20.114  0.00  0.00    +0.000 A 
ATOM     21  C   UNL     1      23.373   6.186  19.499  0.00  0.00    +0.000 A 
ATOM     22  H   UNL     1      19.725   3.841  20.565  0.00  0.00    +0.000 HD
ATOM     23  H   UNL     1      19.725   3.841  20.565  0.00  0.00    +0.000 HD
ENDBRANCH  15  19
BRANCH  14  24
ATOM     24  O   UNL     1      18.240   8.732  18.741  0.00  0.00    +0.000 OA
BRANCH  24  25
ATOM     25  C   UNL     1      17.745   9.834  19.484  0.00  0.00    +0.000 C 
ATOM     26  C   UNL     1      16.571   9.345  20.328  0.00  0.00    +0.000 C 
ATOM     27  C   UNL     1      18.886  10.378  20.338  0.00  0.00    +0.000 C 
BRANCH  25  29
ATOM     28  O   UNL     1      17.172  10.624  17.253  0.00  0.00    +0.000 OA
ATOM     29  C   UNL     1      17.293  10.857  18.451  0.00  0.00    +0.000 C 
BRANCH  29  30
ATOM     30  O   UNL     1      17.030  12.078  18.981  0.00  0.00    +0.000 OA
ATOM     31  H   UNL     1      16.705   3.868  17.012  0.00  0.00    +0.000 HD
ENDBRANCH  29  30
ENDBRANCH  25  29
ENDBRANCH  24  25
ENDBRANCH  14  24
ENDBRANCH  12  15
ENDBRANCH   5  11
BRANCH   7  33
ATOM     32  OXT UNL     1      12.838   5.205  22.038  0.00  0.00    +0.000 OA
ATOM     33  C   UNL     1      13.525   6.100  22.485  0.00  0.00    +0.000 C 
BRANCH  33  34
ATOM     34  O   UNL     1      13.263   7.419  22.414  0.00  0.00    +0.000 OA
ATOM     35  H   UNL     1      14.244   3.842  25.584  0.00  0.00    +0.000 HD
ENDBRANCH  33  34
ENDBRANCH   7  33
BRANCH   8  36
ATOM     36  C   UNL     1      13.628   5.794  25.451  0.00  0.00    +0.000 C 
BRANCH  36  37
ATOM     37  S   UNL     1      13.335   4.202  26.238  0.00  0.00    +0.000 S 
BRANCH  37  41
ATOM     38  S   UNL     1      13.518   2.147  23.959  0.00  0.00    +0.000 S 
ATOM     39  N   UNL     1      11.337   3.382  24.589  0.00  0.00    +0.000 NA
ATOM     40  C   UNL     1      11.050   2.543  23.529  0.00  0.00    +0.000 A 
ATOM     41  C   UNL     1      12.608   3.256  24.899  0.00  0.00    +0.000 A 
ATOM     42  C   UNL     1      12.107   1.794  23.052  0.00  0.00    +0.000 A 
BRANCH  40  43
ATOM     43  C   UNL     1       9.670   2.519  23.007  0.00  0.00    +0.000 C 
BRANCH  43  44
ATOM     44  N   UNL     1       8.593   2.436  24.079  0.00  0.00    +0.000 N 
ATOM     45  C   UNL     1       7.655   3.378  24.167  0.00  0.00    +0.000 A 
ATOM     46  C   UNL     1       7.544   4.592  23.307  0.00  0.00    +0.000 C 
ATOM     47  C   UNL     1       6.100   5.017  23.621  0.00  0.00    +0.000 C 
ATOM     48  C   UNL     1       5.781   4.522  25.047  0.00  0.00    +0.000 C 
ATOM     49  C   UNL     1       6.674   3.331  25.146  0.00  0.00    +0.000 A 
ATOM     50  C   UNL     1       6.661   2.292  26.054  0.00  0.00    +0.000 A 
ATOM     51  C   UNL     1       8.609   1.401  24.936  0.00  0.00    +0.000 A 
ATOM     52  C   UNL     1       7.644   1.307  25.942  0.00  0.00    +0.000 A 
ENDBRANCH  43  44
ENDBRANCH  40  43
ENDBRANCH  37  41
ENDBRANCH  36  37
ENDBRANCH   8  36
TORSDOF 14
ENDMDL
MODEL 2
REMARK minimizedAffinity -8.10937405
REMARK minimizedRMSD -1
REMARK  Name = 25056706
REMARK  16 active torsions:
REMARK  status: ('A' for Active; 'I' for Inactive)
REMARK    1  A    between atoms: S_2  and  C_25
REMARK    2  A    between atoms: S_2  and  C_39
REMARK    3  A    between atoms: O_6  and  C_31
REMARK    4  A    between atoms: O_9  and  N_16
REMARK    5  A    between atoms: O_9  and  C_43
REMARK    6  A    between atoms: O_10  and  C_47
REMARK    7  A    between atoms: N_13  and  CA_20
REMARK    8  A    between atoms: N_14  and  C_33
REMARK    9  A    between atoms: CA_22  and  C_31
REMARK   10  A    between atoms: C_23  and  C_25
REMARK   11  A    between atoms: C_32  and  C_37
REMARK   12  A    between atoms: C_33  and  C_38
REMARK   13  A    between atoms: C_37  and  C_41
REMARK   14  A    between atoms: C_43  and  C_45
REMARK   15  A    between atoms: C_43  and  C_46
REMARK   16  A    between atoms: C_43  and  C_47
REMARK                            x       y       z     vdW  Elec       q    Type
REMARK                         _______ _______ _______ _____ _____    ______ ____
ROOT
ATOM      1  S   UNL     1      16.843   4.602  22.296  0.00  0.00    +0.000 S 
ATOM      2  O   UNL     1      18.517   2.652  18.419  0.00  0.00    +0.000 OA
ATOM      3  N   UNL     1      16.867   3.452  19.903  0.00  0.00    +0.000 N 
ATOM      4  C   UNL     1      17.054   4.758  20.508  0.00  0.00    +0.000 C 
ATOM      5  CA  UNL     1      18.502   4.691  19.978  0.00  0.00    +0.000 C 
ATOM      6  C   UNL     1      18.034   3.414  19.222  0.00  0.00    +0.000 C 
ATOM      7  CA  UNL     1      15.773   2.674  20.106  0.00  0.00    +0.000 C 
ATOM      8  C   UNL     1      14.903   2.926  21.112  0.00  0.00    +0.000 C 
ATOM      9  C   UNL     1      15.119   4.021  22.154  0.00  0.00    +0.000 C 
ENDROOT
BRANCH   5  11
ATOM     10  O   UNL     1      20.170   7.035  20.620  0.00  0.00    +0.000 OA
ATOM     11  N   UNL     1      18.873   5.799  19.102  0.00  0.00    +0.000 N 
ATOM     12  C   UNL     1      19.669   6.852  19.521  0.00  0.00    +0.000 C 
ATOM     13  H   UNL     1      16.620   5.787  19.108  0.00  0.00    +0.000 HD
BRANCH  12  15
ATOM     14  N   UNL     1      19.019   8.786  18.195  0.00  0.00    +0.000 NA
ATOM     15  C   UNL     1      19.910   7.876  18.444  0.00  0.00    +0.000 C 
BRANCH  15  19
ATOM     16  S   UNL     1      23.021   7.183  16.053  0.00  0.00    +0.000 S 
ATOM     17  N   UNL     1      22.191   8.739  17.944  0.00  0.00    +0.000 NA
ATOM     18  N   UNL     1      24.365   9.204  17.140  0.00  0.00    +0.000 N 
ATOM     19  C   UNL     1      21.185   7.829  17.679  0.00  0.00    +0.000 A 
ATOM     20  C   UNL     1      21.452   6.908  16.688  0.00  0.00    +0.000 A 
ATOM     21  C   UNL     1      23.207   8.493  17.146  0.00  0.00    +0.000 A 
ATOM     22  H   UNL     1      20.337  11.788  18.064  0.00  0.00    +0.000 HD
ATOM     23  H   UNL     1      20.337  11.788  18.064  0.00  0.00    +0.000 HD
ENDBRANCH  15  19
BRANCH  14  24
ATOM     24  O   UNL     1      17.899   8.660  19.029  0.00  0.00    +0.000 OA
BRANCH  24  25
ATOM     25  C   UNL     1      17.802   9.834  19.820  0.00  0.00    +0.000 C 
ATOM     26  C   UNL     1      17.609   9.410  21.273  0.00  0.00    +0.000 C 
ATOM     27  C   UNL     1      19.077  10.647  19.617  0.00  0.00    +0.000 C 
BRANCH  25  29
ATOM     28  O   UNL     1      15.432  10.164  19.369  0.00  0.00    +0.000 OA
ATOM     29  C   UNL     1      16.582  10.581  19.297  0.00  0.00    +0.000 C 
BRANCH  29  30
ATOM     30  O   UNL     1      16.884  11.776  18.729  0.00  0.00    +0.000 OA
ATOM     31  H   UNL     1      15.762   5.502  24.277  0.00  0.00    +0.000 HD
ENDBRANCH  29  30
ENDBRANCH  25  29
ENDBRANCH  24  25
ENDBRANCH  14  24
ENDBRANCH  12  15
ENDBRANCH   5  11
BRANCH   7  33
ATOM     32  OXT UNL     1      15.022   1.530  18.163  0.00  0.00    +0.000 OA
ATOM     33  C   UNL     1      15.610   1.508  19.225  0.00  0.00    +0.000 C 
BRANCH  33  34
ATOM     34  O   UNL     1      16.211   0.439  19.782  0.00  0.00    +0.000 OA
ATOM     35  H   UNL     1      17.041   5.035  18.373  0.00  0.00    +0.000 HD
ENDBRANCH  33  34
ENDBRANCH   7  33
BRANCH   8  36
ATOM     36  C   UNL     1      13.625   2.161  21.353  0.00  0.00    +0.000 C 
BRANCH  36  37
ATOM     37  S   UNL     1      13.820   1.115  22.805  0.00  0.00    +0.000 S 
BRANCH  37  41
ATOM     38  S   UNL     1      12.499   2.435  25.247  0.00  0.00    +0.000 S 
ATOM     39  N   UNL     1      11.169   1.221  23.391  0.00  0.00    +0.000 NA
ATOM     40  C   UNL     1      10.259   1.686  24.321  0.00  0.00    +0.000 A 
ATOM     41  C   UNL     1      12.380   1.557  23.777  0.00  0.00    +0.000 A 
ATOM     42  C   UNL     1      10.792   2.368  25.396  0.00  0.00    +0.000 A 
BRANCH  40  43
ATOM     43  C   UNL     1       8.825   1.421  24.092  0.00  0.00    +0.000 C 
BRANCH  43  44
ATOM     44  N   UNL     1       7.970   2.670  23.943  0.00  0.00    +0.000 N 
ATOM     45  C   UNL     1       7.205   3.089  24.950  0.00  0.00    +0.000 A 
ATOM     46  C   UNL     1       7.057   2.424  26.277  0.00  0.00    +0.000 C 
ATOM     47  C   UNL     1       6.410   3.564  27.082  0.00  0.00    +0.000 C 
ATOM     48  C   UNL     1       5.624   4.437  26.082  0.00  0.00    +0.000 C 
ATOM     49  C   UNL     1       6.406   4.215  24.829  0.00  0.00    +0.000 A 
ATOM     50  C   UNL     1       6.392   4.923  23.645  0.00  0.00    +0.000 A 
ATOM     51  C   UNL     1       7.995   3.337  22.776  0.00  0.00    +0.000 A 
ATOM     52  C   UNL     1       7.207   4.478  22.603  0.00  0.00    +0.000 A 
ENDBRANCH  43  44
ENDBRANCH  40  43
ENDBRANCH  37  41
ENDBRANCH  36  37
ENDBRANCH   8  36
TORSDOF 14
ENDMDL
MODEL 3
REMARK minimizedAffinity -8.04790688
REMARK minimizedRMSD -1
REMARK  Name = 25056706
REMARK  16 active torsions:
REMARK  status: ('A' for Active; 'I' for Inactive)
REMARK    1  A    between atoms: S_2  and  C_25
REMARK    2  A    between atoms: S_2  and  C_39
REMARK    3  A    between atoms: O_6  and  C_31
REMARK    4  A    between atoms: O_9  and  N_16
REMARK    5  A    between atoms: O_9  and  C_43
REMARK    6  A    between atoms: O_10  and  C_47
REMARK    7  A    between atoms: N_13  and  CA_20
REMARK    8  A    between atoms: N_14  and  C_33
REMARK    9  A    between atoms: CA_22  and  C_31
REMARK   10  A    between atoms: C_23  and  C_25
REMARK   11  A    between atoms: C_32  and  C_37
REMARK   12  A    between atoms: C_33  and  C_38
REMARK   13  A    between atoms: C_37  and  C_41
REMARK   14  A    between atoms: C_43  and  C_45
REMARK   15  A    between atoms: C_43  and  C_46
REMARK   16  A    between atoms: C_43  and  C_47
REMARK                            x       y       z     vdW  Elec       q    Type
REMARK                         _______ _______ _______ _____ _____    ______ ____
ROOT
ATOM      1  S   UNL     1      17.142   5.295  19.713  0.00  0.00    +0.000 S 
ATOM      2  O   UNL     1      18.744   9.352  18.099  0.00  0.00    +0.000 OA
ATOM      3  N   UNL     1      18.136   7.757  19.726  0.00  0.00    +0.000 N 
ATOM      4  C   UNL     1      18.574   6.385  19.549  0.00  0.00    +0.000 C 
ATOM      5  CA  UNL     1      18.964   6.795  18.114  0.00  0.00    +0.000 C 
ATOM      6  C   UNL     1      18.649   8.246  18.577  0.00  0.00    +0.000 C 
ATOM      7  CA  UNL     1      17.429   8.192  20.801  0.00  0.00    +0.000 C 
ATOM      8  C   UNL     1      16.829   7.326  21.650  0.00  0.00    +0.000 C 
ATOM      9  C   UNL     1      16.803   5.815  21.430  0.00  0.00    +0.000 C 
ENDROOT
BRANCH   5  11
ATOM     10  O   UNL     1      20.337   7.302  15.555  0.00  0.00    +0.000 OA
ATOM     11  N   UNL     1      20.369   6.567  17.784  0.00  0.00    +0.000 N 
ATOM     12  C   UNL     1      20.902   6.848  16.537  0.00  0.00    +0.000 C 
ATOM     13  H   UNL     1      19.590   4.560  18.446  0.00  0.00    +0.000 HD
BRANCH  12  15
ATOM     14  N   UNL     1      22.754   5.334  16.088  0.00  0.00    +0.000 NA
ATOM     15  C   UNL     1      22.369   6.524  16.434  0.00  0.00    +0.000 C 
BRANCH  15  19
ATOM     16  S   UNL     1      24.884   9.233  17.923  0.00  0.00    +0.000 S 
ATOM     17  N   UNL     1      23.992   8.262  15.698  0.00  0.00    +0.000 NA
ATOM     18  N   UNL     1      25.597   9.983  15.473  0.00  0.00    +0.000 N 
ATOM     19  C   UNL     1      23.362   7.591  16.729  0.00  0.00    +0.000 A 
ATOM     20  C   UNL     1      23.716   7.980  18.005  0.00  0.00    +0.000 A 
ATOM     21  C   UNL     1      24.816   9.150  16.209  0.00  0.00    +0.000 A 
ATOM     22  H   UNL     1      24.926   5.539  13.584  0.00  0.00    +0.000 HD
ATOM     23  H   UNL     1      24.926   5.539  13.584  0.00  0.00    +0.000 HD
ENDBRANCH  15  19
BRANCH  14  24
ATOM     24  O   UNL     1      21.665   4.484  15.848  0.00  0.00    +0.000 OA
BRANCH  24  25
ATOM     25  C   UNL     1      22.170   3.229  15.421  0.00  0.00    +0.000 C 
ATOM     26  C   UNL     1      23.680   3.363  15.244  0.00  0.00    +0.000 C 
ATOM     27  C   UNL     1      21.800   2.188  16.473  0.00  0.00    +0.000 C 
BRANCH  25  29
ATOM     28  O   UNL     1      21.939   2.209  13.222  0.00  0.00    +0.000 OA
ATOM     29  C   UNL     1      21.483   2.940  14.093  0.00  0.00    +0.000 C 
BRANCH  29  30
ATOM     30  O   UNL     1      20.293   3.578  13.953  0.00  0.00    +0.000 OA
ATOM     31  H   UNL     1      26.453  -1.583  16.565  0.00  0.00    +0.000 HD
ENDBRANCH  29  30
ENDBRANCH  25  29
ENDBRANCH  24  25
ENDBRANCH  14  24
ENDBRANCH  12  15
ENDBRANCH   5  11
BRANCH   7  33
ATOM     32  OXT UNL     1      16.297  10.277  20.662  0.00  0.00    +0.000 OA
ATOM     33  C   UNL     1      17.290   9.647  20.963  0.00  0.00    +0.000 C 
BRANCH  33  34
ATOM     34  O   UNL     1      18.424  10.148  21.491  0.00  0.00    +0.000 OA
ATOM     35  H   UNL     1      14.953   6.808  22.263  0.00  0.00    +0.000 HD
ENDBRANCH  33  34
ENDBRANCH   7  33
BRANCH   8  36
ATOM     36  C   UNL     1      16.096   7.726  22.908  0.00  0.00    +0.000 C 
BRANCH  36  37
ATOM     37  S   UNL     1      14.350   7.953  22.535  0.00  0.00    +0.000 S 
BRANCH  37  41
ATOM     38  S   UNL     1      13.815   6.059  24.896  0.00  0.00    +0.000 S 
ATOM     39  N   UNL     1      12.915   5.646  22.508  0.00  0.00    +0.000 NA
ATOM     40  C   UNL     1      12.483   4.601  23.304  0.00  0.00    +0.000 A 
ATOM     41  C   UNL     1      13.625   6.474  23.242  0.00  0.00    +0.000 A 
ATOM     42  C   UNL     1      12.872   4.653  24.627  0.00  0.00    +0.000 A 
BRANCH  40  43
ATOM     43  C   UNL     1      11.662   3.542  22.687  0.00  0.00    +0.000 C 
BRANCH  43  44
ATOM     44  N   UNL     1      10.544   3.015  23.573  0.00  0.00    +0.000 N 
ATOM     45  C   UNL     1       9.331   3.565  23.529  0.00  0.00    +0.000 A 
ATOM     46  C   UNL     1       8.920   4.722  22.682  0.00  0.00    +0.000 C 
ATOM     47  C   UNL     1       7.390   4.596  22.772  0.00  0.00    +0.000 C 
ATOM     48  C   UNL     1       7.069   3.921  24.122  0.00  0.00    +0.000 C 
ATOM     49  C   UNL     1       8.302   3.110  24.340  0.00  0.00    +0.000 A 
ATOM     50  C   UNL     1       8.529   2.069  25.217  0.00  0.00    +0.000 A 
ATOM     51  C   UNL     1      10.804   1.992  24.405  0.00  0.00    +0.000 A 
ATOM     52  C   UNL     1       9.802   1.497  25.244  0.00  0.00    +0.000 A 
ENDBRANCH  43  44
ENDBRANCH  40  43
ENDBRANCH  37  41
ENDBRANCH  36  37
ENDBRANCH   8  36
TORSDOF 14
ENDMDL
MODEL 4
REMARK minimizedAffinity -8.02604389
REMARK minimizedRMSD -1
REMARK  Name = 25056706
REMARK  16 active torsions:
REMARK  status: ('A' for Active; 'I' for Inactive)
REMARK    1  A    between atoms: S_2  and  C_25
REMARK    2  A    between atoms: S_2  and  C_39
REMARK    3  A    between atoms: O_6  and  C_31
REMARK    4  A    between atoms: O_9  and  N_16
REMARK    5  A    between atoms: O_9  and  C_43
REMARK    6  A    between atoms: O_10  and  C_47
REMARK    7  A    between atoms: N_13  and  CA_20
REMARK    8  A    between atoms: N_14  and  C_33
REMARK    9  A    between atoms: CA_22  and  C_31
REMARK   10  A    between atoms: C_23  and  C_25
REMARK   11  A    between atoms: C_32  and  C_37
REMARK   12  A    between atoms: C_33  and  C_38
REMARK   13  A    between atoms: C_37  and  C_41
REMARK   14  A    between atoms: C_43  and  C_45
REMARK   15  A    between atoms: C_43  and  C_46
REMARK   16  A    between atoms: C_43  and  C_47
REMARK                            x       y       z     vdW  Elec       q    Type
REMARK                         _______ _______ _______ _____ _____    ______ ____
ROOT
ATOM      1  S   UNL     1      16.690   6.080  23.596  0.00  0.00    +0.000 S 
ATOM      2  O   UNL     1      16.496   2.680  20.427  0.00  0.00    +0.000 OA
ATOM      3  N   UNL     1      15.667   4.403  21.809  0.00  0.00    +0.000 N 
ATOM      4  C   UNL     1      16.395   5.658  21.863  0.00  0.00    +0.000 C 
ATOM      5  CA  UNL     1      17.536   4.918  21.133  0.00  0.00    +0.000 C 
ATOM      6  C   UNL     1      16.515   3.754  20.982  0.00  0.00    +0.000 C 
ATOM      7  CA  UNL     1      14.506   4.173  22.474  0.00  0.00    +0.000 C 
ATOM      8  C   UNL     1      14.087   4.991  23.468  0.00  0.00    +0.000 C 
ATOM      9  C   UNL     1      14.910   6.165  23.993  0.00  0.00    +0.000 C 
ENDROOT
BRANCH   5  11
ATOM     10  O   UNL     1      19.858   6.654  20.604  0.00  0.00    +0.000 OA
ATOM     11  N   UNL     1      17.934   5.528  19.867  0.00  0.00    +0.000 N 
ATOM     12  C   UNL     1      19.056   6.332  19.742  0.00  0.00    +0.000 C 
ATOM     13  H   UNL     1      15.838   6.268  20.240  0.00  0.00    +0.000 HD
BRANCH  12  15
ATOM     14  N   UNL     1      18.661   7.937  17.955  0.00  0.00    +0.000 NA
ATOM     15  C   UNL     1      19.258   6.851  18.343  0.00  0.00    +0.000 C 
BRANCH  15  19
ATOM     16  S   UNL     1      22.200   5.167  16.250  0.00  0.00    +0.000 S 
ATOM     17  N   UNL     1      19.624   5.288  16.441  0.00  0.00    +0.000 NA
ATOM     18  N   UNL     1      20.441   3.884  14.723  0.00  0.00    +0.000 N 
ATOM     19  C   UNL     1      20.155   6.103  17.422  0.00  0.00    +0.000 A 
ATOM     20  C   UNL     1      21.532   6.165  17.474  0.00  0.00    +0.000 A 
ATOM     21  C   UNL     1      20.610   4.743  15.762  0.00  0.00    +0.000 A 
ATOM     22  H   UNL     1      17.149   3.506  18.299  0.00  0.00    +0.000 HD
ATOM     23  H   UNL     1      17.149   3.506  18.299  0.00  0.00    +0.000 HD
ENDBRANCH  15  19
BRANCH  14  24
ATOM     24  O   UNL     1      17.871   8.488  18.974  0.00  0.00    +0.000 OA
BRANCH  24  25
ATOM     25  C   UNL     1      18.217   9.858  19.108  0.00  0.00    +0.000 C 
ATOM     26  C   UNL     1      18.971  10.028  20.424  0.00  0.00    +0.000 C 
ATOM     27  C   UNL     1      19.060  10.253  17.900  0.00  0.00    +0.000 C 
BRANCH  25  29
ATOM     28  O   UNL     1      15.812  10.108  19.401  0.00  0.00    +0.000 OA
ATOM     29  C   UNL     1      16.895  10.614  19.129  0.00  0.00    +0.000 C 
BRANCH  29  30
ATOM     30  O   UNL     1      17.020  11.928  18.813  0.00  0.00    +0.000 OA
ATOM     31  H   UNL     1      17.516   4.464  22.742  0.00  0.00    +0.000 HD
ENDBRANCH  29  30
ENDBRANCH  25  29
ENDBRANCH  24  25
ENDBRANCH  14  24
ENDBRANCH  12  15
ENDBRANCH   5  11
BRANCH   7  33
ATOM     32  OXT UNL     1      12.847   2.931  21.312  0.00  0.00    +0.000 OA
ATOM     33  C   UNL     1      13.759   2.960  22.112  0.00  0.00    +0.000 C 
BRANCH  33  34
ATOM     34  O   UNL     1      14.248   1.910  22.802  0.00  0.00    +0.000 OA
ATOM     35  H   UNL     1      15.577   5.499  19.776  0.00  0.00    +0.000 HD
ENDBRANCH  33  34
ENDBRANCH   7  33
BRANCH   8  36
ATOM     36  C   UNL     1      12.774   4.850  24.199  0.00  0.00    +0.000 C 
BRANCH  36  37
ATOM     37  S   UNL     1      13.035   3.925  25.722  0.00  0.00    +0.000 S 
BRANCH  37  41
ATOM     38  S   UNL     1      12.406   0.937  26.074  0.00  0.00    +0.000 S 
ATOM     39  N   UNL     1      10.870   2.573  24.791  0.00  0.00    +0.000 NA
ATOM     40  C   UNL     1      10.279   1.325  24.748  0.00  0.00    +0.000 A 
ATOM     41  C   UNL     1      11.995   2.487  25.464  0.00  0.00    +0.000 A 
ATOM     42  C   UNL     1      10.964   0.312  25.388  0.00  0.00    +0.000 A 
BRANCH  40  43
ATOM     43  C   UNL     1       8.994   1.181  24.037  0.00  0.00    +0.000 C 
BRANCH  43  44
ATOM     44  N   UNL     1       8.286   2.496  23.742  0.00  0.00    +0.000 N 
ATOM     45  C   UNL     1       7.415   3.003  24.613  0.00  0.00    +0.000 A 
ATOM     46  C   UNL     1       7.004   2.386  25.908  0.00  0.00    +0.000 C 
ATOM     47  C   UNL     1       6.345   3.596  26.589  0.00  0.00    +0.000 C 
ATOM     48  C   UNL     1       5.804   4.509  25.469  0.00  0.00    +0.000 C 
ATOM     49  C   UNL     1       6.747   4.191  24.357  0.00  0.00    +0.000 A 
ATOM     50  C   UNL     1       6.981   4.868  23.178  0.00  0.00    +0.000 A 
ATOM     51  C   UNL     1       8.551   3.130  22.587  0.00  0.00    +0.000 A 
ATOM     52  C   UNL     1       7.904   4.330  22.281  0.00  0.00    +0.000 A 
ENDBRANCH  43  44
ENDBRANCH  40  43
ENDBRANCH  37  41
ENDBRANCH  36  37
ENDBRANCH   8  36
TORSDOF 14
ENDMDL
MODEL 5
REMARK minimizedAffinity -7.93927288
REMARK minimizedRMSD -1
REMARK  Name = 25056706
REMARK  16 active torsions:
REMARK  status: ('A' for Active; 'I' for Inactive)
REMARK    1  A    between atoms: S_2  and  C_25
REMARK    2  A    between atoms: S_2  and  C_39
REMARK    3  A    between atoms: O_6  and  C_31
REMARK    4  A    between atoms: O_9  and  N_16
REMARK    5  A    between atoms: O_9  and  C_43
REMARK    6  A    between atoms: O_10  and  C_47
REMARK    7  A    between atoms: N_13  and  CA_20
REMARK    8  A    between atoms: N_14  and  C_33
REMARK    9  A    between atoms: CA_22  and  C_31
REMARK   10  A    between atoms: C_23  and  C_25
REMARK   11  A    between atoms: C_32  and  C_37
REMARK   12  A    between atoms: C_33  and  C_38
REMARK   13  A    between atoms: C_37  and  C_41
REMARK   14  A    between atoms: C_43  and  C_45
REMARK   15  A    between atoms: C_43  and  C_46
REMARK   16  A    between atoms: C_43  and  C_47
REMARK                            x       y       z     vdW  Elec       q    Type
REMARK                         _______ _______ _______ _____ _____    ______ ____
ROOT
ATOM      1  S   UNL     1      20.337   6.072  19.735  0.00  0.00    +0.000 S 
ATOM      2  O   UNL     1      17.124   9.431  19.901  0.00  0.00    +0.000 OA
ATOM      3  N   UNL     1      18.639   7.931  18.892  0.00  0.00    +0.000 N 
ATOM      4  C   UNL     1      18.641   6.547  19.331  0.00  0.00    +0.000 C 
ATOM      5  CA  UNL     1      17.761   7.019  20.508  0.00  0.00    +0.000 C 
ATOM      6  C   UNL     1      17.700   8.379  19.754  0.00  0.00    +0.000 C 
ATOM      7  CA  UNL     1      19.431   8.410  17.898  0.00  0.00    +0.000 C 
ATOM      8  C   UNL     1      20.489   7.704  17.435  0.00  0.00    +0.000 C 
ATOM      9  C   UNL     1      20.944   6.378  18.041  0.00  0.00    +0.000 C 
ENDROOT
BRANCH   5  11
ATOM     10  O   UNL     1      16.904   5.042  22.519  0.00  0.00    +0.000 OA
ATOM     11  N   UNL     1      16.474   6.336  20.608  0.00  0.00    +0.000 N 
ATOM     12  C   UNL     1      16.187   5.420  21.606  0.00  0.00    +0.000 C 
ATOM     13  H   UNL     1      17.251   5.825  18.555  0.00  0.00    +0.000 HD
BRANCH  12  15
ATOM     14  N   UNL     1      13.762   5.584  21.748  0.00  0.00    +0.000 NA
ATOM     15  C   UNL     1      14.800   4.844  21.499  0.00  0.00    +0.000 C 
BRANCH  15  19
ATOM     16  S   UNL     1      13.882   1.005  20.957  0.00  0.00    +0.000 S 
ATOM     17  N   UNL     1      15.394   2.901  20.061  0.00  0.00    +0.000 NA
ATOM     18  N   UNL     1      15.631   0.822  18.961  0.00  0.00    +0.000 N 
ATOM     19  C   UNL     1      14.642   3.421  21.097  0.00  0.00    +0.000 A 
ATOM     20  C   UNL     1      13.767   2.544  21.704  0.00  0.00    +0.000 A 
ATOM     21  C   UNL     1      15.077   1.636  19.898  0.00  0.00    +0.000 A 
ATOM     22  H   UNL     1      15.030   5.464  17.600  0.00  0.00    +0.000 HD
ATOM     23  H   UNL     1      15.030   5.464  17.600  0.00  0.00    +0.000 HD
ENDBRANCH  15  19
BRANCH  14  24
ATOM     24  O   UNL     1      14.129   6.891  22.100  0.00  0.00    +0.000 OA
BRANCH  24  25
ATOM     25  C   UNL     1      13.108   7.429  22.926  0.00  0.00    +0.000 C 
ATOM     26  C   UNL     1      11.782   6.799  22.508  0.00  0.00    +0.000 C 
ATOM     27  C   UNL     1      13.464   7.122  24.377  0.00  0.00    +0.000 C 
BRANCH  25  29
ATOM     28  O   UNL     1      13.708   9.751  23.349  0.00  0.00    +0.000 OA
ATOM     29  C   UNL     1      13.114   8.928  22.661  0.00  0.00    +0.000 C 
BRANCH  29  30
ATOM     30  O   UNL     1      12.385   9.286  21.574  0.00  0.00    +0.000 OA
ATOM     31  H   UNL     1      18.312   6.013  26.628  0.00  0.00    +0.000 HD
ENDBRANCH  29  30
ENDBRANCH  25  29
ENDBRANCH  24  25
ENDBRANCH  14  24
ENDBRANCH  12  15
ENDBRANCH   5  11
BRANCH   7  33
ATOM     32  OXT UNL     1      18.505   9.983  16.376  0.00  0.00    +0.000 OA
ATOM     33  C   UNL     1      19.127   9.757  17.394  0.00  0.00    +0.000 C 
BRANCH  33  34
ATOM     34  O   UNL     1      19.644  10.676  18.233  0.00  0.00    +0.000 OA
ATOM     35  H   UNL     1      16.681   6.802  18.098  0.00  0.00    +0.000 HD
ENDBRANCH  33  34
ENDBRANCH   7  33
BRANCH   8  36
ATOM     36  C   UNL     1      21.365   8.129  16.282  0.00  0.00    +0.000 C 
BRANCH  36  37
ATOM     37  S   UNL     1      22.800   7.044  16.192  0.00  0.00    +0.000 S 
BRANCH  37  41
ATOM     38  S   UNL     1      25.532   8.452  16.192  0.00  0.00    +0.000 S 
ATOM     39  N   UNL     1      23.912   8.490  18.205  0.00  0.00    +0.000 NA
ATOM     40  C   UNL     1      25.032   9.219  18.557  0.00  0.00    +0.000 A 
ATOM     41  C   UNL     1      24.066   8.039  16.981  0.00  0.00    +0.000 A 
ATOM     42  C   UNL     1      26.017   9.310  17.595  0.00  0.00    +0.000 A 
BRANCH  40  43
ATOM     43  C   UNL     1      25.080   9.827  19.901  0.00  0.00    +0.000 C 
BRANCH  43  44
ATOM     44  N   UNL     1      25.551   8.887  21.001  0.00  0.00    +0.000 N 
ATOM     45  C   UNL     1      25.640   9.313  22.260  0.00  0.00    +0.000 A 
ATOM     46  C   UNL     1      25.342  10.691  22.746  0.00  0.00    +0.000 C 
ATOM     47  C   UNL     1      25.233  10.429  24.258  0.00  0.00    +0.000 C 
ATOM     48  C   UNL     1      26.127   9.212  24.573  0.00  0.00    +0.000 C 
ATOM     49  C   UNL     1      26.083   8.477  23.275  0.00  0.00    +0.000 A 
ATOM     50  C   UNL     1      26.443   7.177  22.984  0.00  0.00    +0.000 A 
ATOM     51  C   UNL     1      25.881   7.625  20.678  0.00  0.00    +0.000 A 
ATOM     52  C   UNL     1      26.334   6.743  21.663  0.00  0.00    +0.000 A 
ENDBRANCH  43  44
ENDBRANCH  40  43
ENDBRANCH  37  41
ENDBRANCH  36  37
ENDBRANCH   8  36
TORSDOF 14
ENDMDL
MODEL 6
REMARK minimizedAffinity -7.80846214
REMARK minimizedRMSD -1
REMARK  Name = 25056706
REMARK  16 active torsions:
REMARK  status: ('A' for Active; 'I' for Inactive)
REMARK    1  A    between atoms: S_2  and  C_25
REMARK    2  A    between atoms: S_2  and  C_39
REMARK    3  A    between atoms: O_6  and  C_31
REMARK    4  A    between atoms: O_9  and  N_16
REMARK    5  A    between atoms: O_9  and  C_43
REMARK    6  A    between atoms: O_10  and  C_47
REMARK    7  A    between atoms: N_13  and  CA_20
REMARK    8  A    between atoms: N_14  and  C_33
REMARK    9  A    between atoms: CA_22  and  C_31
REMARK   10  A    between atoms: C_23  and  C_25
REMARK   11  A    between atoms: C_32  and  C_37
REMARK   12  A    between atoms: C_33  and  C_38
REMARK   13  A    between atoms: C_37  and  C_41
REMARK   14  A    between atoms: C_43  and  C_45
REMARK   15  A    between atoms: C_43  and  C_46
REMARK   16  A    between atoms: C_43  and  C_47
REMARK                            x       y       z     vdW  Elec       q    Type
REMARK                         _______ _______ _______ _____ _____    ______ ____
ROOT
ATOM      1  S   UNL     1      14.165   4.643  20.856  0.00  0.00    +0.000 S 
ATOM      2  O   UNL     1      15.732   8.747  22.386  0.00  0.00    +0.000 OA
ATOM      3  N   UNL     1      14.944   6.530  22.554  0.00  0.00    +0.000 N 
ATOM      4  C   UNL     1      15.514   5.524  21.677  0.00  0.00    +0.000 C 
ATOM      5  CA  UNL     1      16.143   6.697  20.897  0.00  0.00    +0.000 C 
ATOM      6  C   UNL     1      15.632   7.586  22.067  0.00  0.00    +0.000 C 
ATOM      7  CA  UNL     1      14.010   6.265  23.503  0.00  0.00    +0.000 C 
ATOM      8  C   UNL     1      13.325   5.098  23.514  0.00  0.00    +0.000 C 
ATOM      9  C   UNL     1      13.459   4.035  22.426  0.00  0.00    +0.000 C 
ENDROOT
BRANCH   5  11
ATOM     10  O   UNL     1      17.757   5.208  18.931  0.00  0.00    +0.000 OA
ATOM     11  N   UNL     1      17.598   6.635  20.789  0.00  0.00    +0.000 N 
ATOM     12  C   UNL     1      18.247   5.894  19.814  0.00  0.00    +0.000 C 
ATOM     13  H   UNL     1      17.135   5.919  22.874  0.00  0.00    +0.000 HD
BRANCH  12  15
ATOM     14  N   UNL     1      20.380   6.980  19.374  0.00  0.00    +0.000 NA
ATOM     15  C   UNL     1      19.747   5.979  19.907  0.00  0.00    +0.000 C 
BRANCH  15  19
ATOM     16  S   UNL     1      21.344   2.648  21.398  0.00  0.00    +0.000 S 
ATOM     17  N   UNL     1      21.398   5.224  21.609  0.00  0.00    +0.000 NA
ATOM     18  N   UNL     1      22.847   4.064  23.074  0.00  0.00    +0.000 N 
ATOM     19  C   UNL     1      20.485   4.905  20.623  0.00  0.00    +0.000 A 
ATOM     20  C   UNL     1      20.320   3.559  20.368  0.00  0.00    +0.000 A 
ATOM     21  C   UNL     1      21.913   4.113  22.088  0.00  0.00    +0.000 A 
ATOM     22  H   UNL     1      23.232   7.844  20.020  0.00  0.00    +0.000 HD
ATOM     23  H   UNL     1      23.232   7.844  20.020  0.00  0.00    +0.000 HD
ENDBRANCH  15  19
BRANCH  14  24
ATOM     24  O   UNL     1      19.502   7.882  18.757  0.00  0.00    +0.000 OA
BRANCH  24  25
ATOM     25  C   UNL     1      20.251   8.684  17.858  0.00  0.00    +0.000 C 
ATOM     26  C   UNL     1      21.517   9.143  18.578  0.00  0.00    +0.000 C 
ATOM     27  C   UNL     1      20.559   7.846  16.621  0.00  0.00    +0.000 C 
BRANCH  25  29
ATOM     28  O   UNL     1      18.986  10.713  18.321  0.00  0.00    +0.000 OA
ATOM     29  C   UNL     1      19.353   9.865  17.515  0.00  0.00    +0.000 C 
BRANCH  29  30
ATOM     30  O   UNL     1      18.981   9.898  16.211  0.00  0.00    +0.000 OA
ATOM     31  H   UNL     1      23.489  10.138  23.353  0.00  0.00    +0.000 HD
ENDBRANCH  29  30
ENDBRANCH  25  29
ENDBRANCH  24  25
ENDBRANCH  14  24
ENDBRANCH  12  15
ENDBRANCH   5  11
BRANCH   7  33
ATOM     32  OXT UNL     1      12.979   8.261  24.278  0.00  0.00    +0.000 OA
ATOM     33  C   UNL     1      13.730   7.329  24.479  0.00  0.00    +0.000 C 
BRANCH  33  34
ATOM     34  O   UNL     1      14.430   7.097  25.607  0.00  0.00    +0.000 OA
ATOM     35  H   UNL     1      11.215   5.041  22.567  0.00  0.00    +0.000 HD
ENDBRANCH  33  34
ENDBRANCH   7  33
BRANCH   8  36
ATOM     36  C   UNL     1      12.332   4.695  24.578  0.00  0.00    +0.000 C 
BRANCH  36  37
ATOM     37  S   UNL     1      12.838   3.126  25.302  0.00  0.00    +0.000 S 
BRANCH  37  41
ATOM     38  S   UNL     1      12.078   0.669  23.618  0.00  0.00    +0.000 S 
ATOM     39  N   UNL     1      10.346   2.144  24.846  0.00  0.00    +0.000 NA
ATOM     40  C   UNL     1       9.653   1.140  24.196  0.00  0.00    +0.000 A 
ATOM     41  C   UNL     1      11.630   1.995  24.612  0.00  0.00    +0.000 A 
ATOM     42  C   UNL     1      10.422   0.246  23.480  0.00  0.00    +0.000 A 
BRANCH  40  43
ATOM     43  C   UNL     1       8.183   1.109  24.319  0.00  0.00    +0.000 C 
BRANCH  43  44
ATOM     44  N   UNL     1       7.507   2.459  24.133  0.00  0.00    +0.000 N 
ATOM     45  C   UNL     1       6.854   3.031  25.144  0.00  0.00    +0.000 A 
ATOM     46  C   UNL     1       6.673   2.460  26.510  0.00  0.00    +0.000 C 
ATOM     47  C   UNL     1       6.229   3.719  27.275  0.00  0.00    +0.000 C 
ATOM     48  C   UNL     1       5.531   4.645  26.258  0.00  0.00    +0.000 C 
ATOM     49  C   UNL     1       6.217   4.253  24.992  0.00  0.00    +0.000 A 
ATOM     50  C   UNL     1       6.251   4.898  23.772  0.00  0.00    +0.000 A 
ATOM     51  C   UNL     1       7.574   3.058  22.932  0.00  0.00    +0.000 A 
ATOM     52  C   UNL     1       6.947   4.290  22.726  0.00  0.00    +0.000 A 
ENDBRANCH  43  44
ENDBRANCH  40  43
ENDBRANCH  37  41
ENDBRANCH  36  37
ENDBRANCH   8  36
TORSDOF 14
ENDMDL
MODEL 7
REMARK minimizedAffinity -7.77387667
REMARK minimizedRMSD -1
REMARK  Name = 25056706
REMARK  16 active torsions:
REMARK  status: ('A' for Active; 'I' for Inactive)
REMARK    1  A    between atoms: S_2  and  C_25
REMARK    2  A    between atoms: S_2  and  C_39
REMARK    3  A    between atoms: O_6  and  C_31
REMARK    4  A    between atoms: O_9  and  N_16
REMARK    5  A    between atoms: O_9  and  C_43
REMARK    6  A    between atoms: O_10  and  C_47
REMARK    7  A    between atoms: N_13  and  CA_20
REMARK    8  A    between atoms: N_14  and  C_33
REMARK    9  A    between atoms: CA_22  and  C_31
REMARK   10  A    between atoms: C_23  and  C_25
REMARK   11  A    between atoms: C_32  and  C_37
REMARK   12  A    between atoms: C_33  and  C_38
REMARK   13  A    between atoms: C_37  and  C_41
REMARK   14  A    between atoms: C_43  and  C_45
REMARK   15  A    between atoms: C_43  and  C_46
REMARK   16  A    between atoms: C_43  and  C_47
REMARK                            x       y       z     vdW  Elec       q    Type
REMARK                         _______ _______ _______ _____ _____    ______ ____
ROOT
ATOM      1  S   UNL     1      18.192   3.742  21.898  0.00  0.00    +0.000 S 
ATOM      2  O   UNL     1      19.031   2.898  17.401  0.00  0.00    +0.000 OA
ATOM      3  N   UNL     1      17.722   3.302  19.322  0.00  0.00    +0.000 N 
ATOM      4  C   UNL     1      18.110   4.383  20.210  0.00  0.00    +0.000 C 
ATOM      5  CA  UNL     1      19.439   4.423  19.426  0.00  0.00    +0.000 C 
ATOM      6  C   UNL     1      18.751   3.421  18.454  0.00  0.00    +0.000 C 
ATOM      7  CA  UNL     1      16.619   2.531  19.505  0.00  0.00    +0.000 C 
ATOM      8  C   UNL     1      15.954   2.519  20.684  0.00  0.00    +0.000 C 
ATOM      9  C   UNL     1      16.427   3.274  21.924  0.00  0.00    +0.000 C 
ENDROOT
BRANCH   5  11
ATOM     10  O   UNL     1      20.385   6.869  20.770  0.00  0.00    +0.000 OA
ATOM     11  N   UNL     1      19.743   5.719  18.826  0.00  0.00    +0.000 N 
ATOM     12  C   UNL     1      20.185   6.803  19.568  0.00  0.00    +0.000 C 
ATOM     13  H   UNL     1      17.598   5.308  18.272  0.00  0.00    +0.000 HD
BRANCH  12  15
ATOM     14  N   UNL     1      19.484   8.909  18.569  0.00  0.00    +0.000 NA
ATOM     15  C   UNL     1      20.427   8.032  18.731  0.00  0.00    +0.000 C 
BRANCH  15  19
ATOM     16  S   UNL     1      24.131   8.988  17.617  0.00  0.00    +0.000 S 
ATOM     17  N   UNL     1      22.080   7.572  16.929  0.00  0.00    +0.000 NA
ATOM     18  N   UNL     1      23.933   7.436  15.467  0.00  0.00    +0.000 N 
ATOM     19  C   UNL     1      21.762   8.223  18.105  0.00  0.00    +0.000 A 
ATOM     20  C   UNL     1      22.747   9.035  18.628  0.00  0.00    +0.000 A 
ATOM     21  C   UNL     1      23.304   7.900  16.578  0.00  0.00    +0.000 A 
ATOM     22  H   UNL     1      20.947   4.264  17.653  0.00  0.00    +0.000 HD
ATOM     23  H   UNL     1      20.947   4.264  17.653  0.00  0.00    +0.000 HD
ENDBRANCH  15  19
BRANCH  14  24
ATOM     24  O   UNL     1      18.312   8.545  19.247  0.00  0.00    +0.000 OA
BRANCH  24  25
ATOM     25  C   UNL     1      17.905   9.643  20.048  0.00  0.00    +0.000 C 
ATOM     26  C   UNL     1      17.418   9.095  21.387  0.00  0.00    +0.000 C 
ATOM     27  C   UNL     1      19.097  10.582  20.204  0.00  0.00    +0.000 C 
BRANCH  25  29
ATOM     28  O   UNL     1      16.931  11.149  18.400  0.00  0.00    +0.000 OA
ATOM     29  C   UNL     1      16.772  10.312  19.281  0.00  0.00    +0.000 C 
BRANCH  29  30
ATOM     30  O   UNL     1      15.540   9.895  19.668  0.00  0.00    +0.000 OA
ATOM     31  H   UNL     1      23.356  10.183  16.472  0.00  0.00    +0.000 HD
ENDBRANCH  29  30
ENDBRANCH  25  29
ENDBRANCH  24  25
ENDBRANCH  14  24
ENDBRANCH  12  15
ENDBRANCH   5  11
BRANCH   7  33
ATOM     32  OXT UNL     1      16.588   0.513  18.251  0.00  0.00    +0.000 OA
ATOM     33  C   UNL     1      16.220   1.662  18.389  0.00  0.00    +0.000 C 
BRANCH  33  34
ATOM     34  O   UNL     1      15.396   2.340  17.567  0.00  0.00    +0.000 OA
ATOM     35  H   UNL     1      15.956   0.995  22.223  0.00  0.00    +0.000 HD
ENDBRANCH  33  34
ENDBRANCH   7  33
BRANCH   8  36
ATOM     36  C   UNL     1      14.678   1.755  20.941  0.00  0.00    +0.000 C 
BRANCH  36  37
ATOM     37  S   UNL     1      14.359   1.704  22.712  0.00  0.00    +0.000 S 
BRANCH  37  41
ATOM     38  S   UNL     1      12.763   4.282  23.219  0.00  0.00    +0.000 S 
ATOM     39  N   UNL     1      11.661   2.017  22.636  0.00  0.00    +0.000 NA
ATOM     40  C   UNL     1      10.650   2.945  22.795  0.00  0.00    +0.000 A 
ATOM     41  C   UNL     1      12.817   2.610  22.836  0.00  0.00    +0.000 A 
ATOM     42  C   UNL     1      11.053   4.226  23.113  0.00  0.00    +0.000 A 
BRANCH  40  43
ATOM     43  C   UNL     1       9.254   2.498  22.616  0.00  0.00    +0.000 C 
BRANCH  43  44
ATOM     44  N   UNL     1       8.435   2.461  23.898  0.00  0.00    +0.000 N 
ATOM     45  C   UNL     1       7.497   3.379  24.126  0.00  0.00    +0.000 A 
ATOM     46  C   UNL     1       7.150   4.523  23.234  0.00  0.00    +0.000 C 
ATOM     47  C   UNL     1       5.789   4.927  23.825  0.00  0.00    +0.000 C 
ATOM     48  C   UNL     1       5.804   4.527  25.314  0.00  0.00    +0.000 C 
ATOM     49  C   UNL     1       6.750   3.373  25.294  0.00  0.00    +0.000 A 
ATOM     50  C   UNL     1       6.978   2.403  26.249  0.00  0.00    +0.000 A 
ATOM     51  C   UNL     1       8.681   1.493  24.796  0.00  0.00    +0.000 A 
ATOM     52  C   UNL     1       7.957   1.443  25.991  0.00  0.00    +0.000 A 
ENDBRANCH  43  44
ENDBRANCH  40  43
ENDBRANCH  37  41
ENDBRANCH  36  37
ENDBRANCH   8  36
TORSDOF 14
ENDMDL
MODEL 8
REMARK minimizedAffinity -7.75234032
REMARK minimizedRMSD -1
REMARK  Name = 25056706
REMARK  16 active torsions:
REMARK  status: ('A' for Active; 'I' for Inactive)
REMARK    1  A    between atoms: S_2  and  C_25
REMARK    2  A    between atoms: S_2  and  C_39
REMARK    3  A    between atoms: O_6  and  C_31
REMARK    4  A    between atoms: O_9  and  N_16
REMARK    5  A    between atoms: O_9  and  C_43
REMARK    6  A    between atoms: O_10  and  C_47
REMARK    7  A    between atoms: N_13  and  CA_20
REMARK    8  A    between atoms: N_14  and  C_33
REMARK    9  A    between atoms: CA_22  and  C_31
REMARK   10  A    between atoms: C_23  and  C_25
REMARK   11  A    between atoms: C_32  and  C_37
REMARK   12  A    between atoms: C_33  and  C_38
REMARK   13  A    between atoms: C_37  and  C_41
REMARK   14  A    between atoms: C_43  and  C_45
REMARK   15  A    between atoms: C_43  and  C_46
REMARK   16  A    between atoms: C_43  and  C_47
REMARK                            x       y       z     vdW  Elec       q    Type
REMARK                         _______ _______ _______ _____ _____    ______ ____
ROOT
ATOM      1  S   UNL     1      20.146   2.335  19.442  0.00  0.00    +0.000 S 
ATOM      2  O   UNL     1      16.667   5.420  19.564  0.00  0.00    +0.000 OA
ATOM      3  N   UNL     1      18.287   3.946  20.440  0.00  0.00    +0.000 N 
ATOM      4  C   UNL     1      19.636   4.005  19.910  0.00  0.00    +0.000 C 
ATOM      5  CA  UNL     1      19.053   4.886  18.784  0.00  0.00    +0.000 C 
ATOM      6  C   UNL     1      17.747   4.882  19.628  0.00  0.00    +0.000 C 
ATOM      7  CA  UNL     1      17.906   3.120  21.449  0.00  0.00    +0.000 C 
ATOM      8  C   UNL     1      18.680   2.083  21.843  0.00  0.00    +0.000 C 
ATOM      9  C   UNL     1      19.978   1.688  21.141  0.00  0.00    +0.000 C 
ENDROOT
BRANCH   5  11
ATOM     10  O   UNL     1      18.915   6.764  16.517  0.00  0.00    +0.000 OA
ATOM     11  N   UNL     1      19.680   6.199  18.664  0.00  0.00    +0.000 N 
ATOM     12  C   UNL     1      19.540   6.996  17.539  0.00  0.00    +0.000 C 
ATOM     13  H   UNL     1      21.381   4.772  19.045  0.00  0.00    +0.000 HD
BRANCH  12  15
ATOM     14  N   UNL     1      19.663   9.378  18.027  0.00  0.00    +0.000 NA
ATOM     15  C   UNL     1      20.282   8.302  17.645  0.00  0.00    +0.000 C 
BRANCH  15  19
ATOM     16  S   UNL     1      23.971   7.996  16.169  0.00  0.00    +0.000 S 
ATOM     17  N   UNL     1      22.622   8.993  18.138  0.00  0.00    +0.000 NA
ATOM     18  N   UNL     1      24.948   9.412  18.197  0.00  0.00    +0.000 N 
ATOM     19  C   UNL     1      21.731   8.335  17.311  0.00  0.00    +0.000 A 
ATOM     20  C   UNL     1      22.276   7.734  16.196  0.00  0.00    +0.000 A 
ATOM     21  C   UNL     1      23.832   8.880  17.634  0.00  0.00    +0.000 A 
ATOM     22  H   UNL     1      20.889  12.063  18.705  0.00  0.00    +0.000 HD
ATOM     23  H   UNL     1      20.889  12.063  18.705  0.00  0.00    +0.000 HD
ENDBRANCH  15  19
BRANCH  14  24
ATOM     24  O   UNL     1      18.311   9.130  18.300  0.00  0.00    +0.000 OA
BRANCH  24  25
ATOM     25  C   UNL     1      17.982   9.770  19.522  0.00  0.00    +0.000 C 
ATOM     26  C   UNL     1      17.638   8.689  20.544  0.00  0.00    +0.000 C 
ATOM     27  C   UNL     1      19.178  10.614  19.951  0.00  0.00    +0.000 C 
BRANCH  25  29
ATOM     28  O   UNL     1      15.608  10.276  19.323  0.00  0.00    +0.000 OA
ATOM     29  C   UNL     1      16.772  10.643  19.216  0.00  0.00    +0.000 C 
BRANCH  29  30
ATOM     30  O   UNL     1      17.101  11.893  18.801  0.00  0.00    +0.000 OA
ATOM     31  H   UNL     1      16.030   4.931  23.468  0.00  0.00    +0.000 HD
ENDBRANCH  29  30
ENDBRANCH  25  29
ENDBRANCH  24  25
ENDBRANCH  14  24
ENDBRANCH  12  15
ENDBRANCH   5  11
BRANCH   7  33
ATOM     32  OXT UNL     1      15.594   2.704  21.811  0.00  0.00    +0.000 OA
ATOM     33  C   UNL     1      16.586   3.364  22.048  0.00  0.00    +0.000 C 
BRANCH  33  34
ATOM     34  O   UNL     1      16.661   4.417  22.884  0.00  0.00    +0.000 OA
ATOM     35  H   UNL     1      18.662   0.063  21.967  0.00  0.00    +0.000 HD
ENDBRANCH  33  34
ENDBRANCH   7  33
BRANCH   8  36
ATOM     36  C   UNL     1      18.367   1.171  23.005  0.00  0.00    +0.000 C 
BRANCH  36  37
ATOM     37  S   UNL     1      19.519   1.500  24.349  0.00  0.00    +0.000 S 
BRANCH  37  41
ATOM     38  S   UNL     1      19.272   3.760  26.418  0.00  0.00    +0.000 S 
ATOM     39  N   UNL     1      17.240   2.487  25.453  0.00  0.00    +0.000 NA
ATOM     40  C   UNL     1      16.759   3.425  26.346  0.00  0.00    +0.000 A 
ATOM     41  C   UNL     1      18.551   2.574  25.410  0.00  0.00    +0.000 A 
ATOM     42  C   UNL     1      17.711   4.208  26.967  0.00  0.00    +0.000 A 
BRANCH  40  43
ATOM     43  C   UNL     1      15.301   3.509  26.558  0.00  0.00    +0.000 C 
BRANCH  43  44
ATOM     44  N   UNL     1      14.584   4.476  25.627  0.00  0.00    +0.000 N 
ATOM     45  C   UNL     1      13.614   4.044  24.822  0.00  0.00    +0.000 A 
ATOM     46  C   UNL     1      13.137   2.637  24.696  0.00  0.00    +0.000 C 
ATOM     47  C   UNL     1      11.802   2.866  23.967  0.00  0.00    +0.000 C 
ATOM     48  C   UNL     1      11.953   4.161  23.142  0.00  0.00    +0.000 C 
ATOM     49  C   UNL     1      12.960   4.906  23.955  0.00  0.00    +0.000 A 
ATOM     50  C   UNL     1      13.314   6.239  23.915  0.00  0.00    +0.000 A 
ATOM     51  C   UNL     1      14.952   5.768  25.627  0.00  0.00    +0.000 A 
ATOM     52  C   UNL     1      14.324   6.677  24.771  0.00  0.00    +0.000 A 
ENDBRANCH  43  44
ENDBRANCH  40  43
ENDBRANCH  37  41
ENDBRANCH  36  37
ENDBRANCH   8  36
TORSDOF 14
ENDMDL
MODEL 9
REMARK minimizedAffinity -7.65919495
REMARK minimizedRMSD -1
REMARK  Name = 25056706
REMARK  16 active torsions:
REMARK  status: ('A' for Active; 'I' for Inactive)
REMARK    1  A    between atoms: S_2  and  C_25
REMARK    2  A    between atoms: S_2  and  C_39
REMARK    3  A    between atoms: O_6  and  C_31
REMARK    4  A    between atoms: O_9  and  N_16
REMARK    5  A    between atoms: O_9  and  C_43
REMARK    6  A    between atoms: O_10  and  C_47
REMARK    7  A    between atoms: N_13  and  CA_20
REMARK    8  A    between atoms: N_14  and  C_33
REMARK    9  A    between atoms: CA_22  and  C_31
REMARK   10  A    between atoms: C_23  and  C_25
REMARK   11  A    between atoms: C_32  and  C_37
REMARK   12  A    between atoms: C_33  and  C_38
REMARK   13  A    between atoms: C_37  and  C_41
REMARK   14  A    between atoms: C_43  and  C_45
REMARK   15  A    between atoms: C_43  and  C_46
REMARK   16  A    between atoms: C_43  and  C_47
REMARK                            x       y       z     vdW  Elec       q    Type
REMARK                         _______ _______ _______ _____ _____    ______ ____
ROOT
ATOM      1  S   UNL     1      19.159   7.347  20.961  0.00  0.00    +0.000 S 
ATOM      2  O   UNL     1      20.039  10.246  17.432  0.00  0.00    +0.000 OA
ATOM      3  N   UNL     1      19.179   9.580  19.524  0.00  0.00    +0.000 N 
ATOM      4  C   UNL     1      20.040   8.830  20.420  0.00  0.00    +0.000 C 
ATOM      5  CA  UNL     1      20.990   8.664  19.215  0.00  0.00    +0.000 C 
ATOM      6  C   UNL     1      20.049   9.671  18.494  0.00  0.00    +0.000 C 
ATOM      7  CA  UNL     1      17.914   9.963  19.835  0.00  0.00    +0.000 C 
ATOM      8  C   UNL     1      17.253   9.430  20.889  0.00  0.00    +0.000 C 
ATOM      9  C   UNL     1      17.814   8.298  21.747  0.00  0.00    +0.000 C 
ENDROOT
BRANCH   5  11
ATOM     10  O   UNL     1      23.503   7.131  19.359  0.00  0.00    +0.000 OA
ATOM     11  N   UNL     1      22.341   9.170  19.441  0.00  0.00    +0.000 N 
ATOM     12  C   UNL     1      23.453   8.344  19.488  0.00  0.00    +0.000 C 
ATOM     13  H   UNL     1      21.153   9.855  21.229  0.00  0.00    +0.000 HD
BRANCH  12  15
ATOM     14  N   UNL     1      25.431   9.550  18.742  0.00  0.00    +0.000 NA
ATOM     15  C   UNL     1      24.735   9.093  19.738  0.00  0.00    +0.000 C 
BRANCH  15  19
ATOM     16  S   UNL     1      25.688  10.338  23.401  0.00  0.00    +0.000 S 
ATOM     17  N   UNL     1      25.762   8.270  21.850  0.00  0.00    +0.000 NA
ATOM     18  N   UNL     1      26.657   7.938  24.014  0.00  0.00    +0.000 N 
ATOM     19  C   UNL     1      25.182   9.304  21.141  0.00  0.00    +0.000 A 
ATOM     20  C   UNL     1      25.057  10.500  21.815  0.00  0.00    +0.000 A 
ATOM     21  C   UNL     1      26.069   8.700  23.055  0.00  0.00    +0.000 A 
ATOM     22  H   UNL     1      23.518   5.591  21.114  0.00  0.00    +0.000 HD
ATOM     23  H   UNL     1      23.518   5.591  21.114  0.00  0.00    +0.000 HD
ENDBRANCH  15  19
BRANCH  14  24
ATOM     24  O   UNL     1      24.833   9.252  17.510  0.00  0.00    +0.000 OA
BRANCH  24  25
ATOM     25  C   UNL     1      25.779   8.552  16.717  0.00  0.00    +0.000 C 
ATOM     26  C   UNL     1      26.896   8.063  17.636  0.00  0.00    +0.000 C 
ATOM     27  C   UNL     1      25.055   7.402  16.023  0.00  0.00    +0.000 C 
BRANCH  25  29
ATOM     28  O   UNL     1      27.482   9.861  15.569  0.00  0.00    +0.000 OA
ATOM     29  C   UNL     1      26.300   9.566  15.708  0.00  0.00    +0.000 C 
BRANCH  29  30
ATOM     30  O   UNL     1      25.321  10.132  14.958  0.00  0.00    +0.000 OA
ATOM     31  H   UNL     1      30.740   4.623  18.376  0.00  0.00    +0.000 HD
ENDBRANCH  29  30
ENDBRANCH  25  29
ENDBRANCH  24  25
ENDBRANCH  14  24
ENDBRANCH  12  15
ENDBRANCH   5  11
BRANCH   7  33
ATOM     32  OXT UNL     1      17.302  12.138  19.098  0.00  0.00    +0.000 OA
ATOM     33  C   UNL     1      17.271  10.935  18.938  0.00  0.00    +0.000 C 
BRANCH  33  34
ATOM     34  O   UNL     1      16.659  10.279  17.933  0.00  0.00    +0.000 OA
ATOM     35  H   UNL     1      20.980  10.797  20.139  0.00  0.00    +0.000 HD
ENDBRANCH  33  34
ENDBRANCH   7  33
BRANCH   8  36
ATOM     36  C   UNL     1      15.880   9.859  21.348  0.00  0.00    +0.000 C 
BRANCH  36  37
ATOM     37  S   UNL     1      15.670   9.430  23.084  0.00  0.00    +0.000 S 
BRANCH  37  41
ATOM     38  S   UNL     1      12.901   8.549  22.080  0.00  0.00    +0.000 S 
ATOM     39  N   UNL     1      14.351   7.132  23.684  0.00  0.00    +0.000 NA
ATOM     40  C   UNL     1      13.182   6.432  23.448  0.00  0.00    +0.000 A 
ATOM     41  C   UNL     1      14.312   8.262  23.013  0.00  0.00    +0.000 A 
ATOM     42  C   UNL     1      12.276   7.041  22.604  0.00  0.00    +0.000 A 
BRANCH  40  43
ATOM     43  C   UNL     1      13.005   5.122  24.104  0.00  0.00    +0.000 C 
BRANCH  43  44
ATOM     44  N   UNL     1      13.030   3.934  23.155  0.00  0.00    +0.000 N 
ATOM     45  C   UNL     1      11.903   3.289  22.851  0.00  0.00    +0.000 A 
ATOM     46  C   UNL     1      10.544   3.595  23.383  0.00  0.00    +0.000 C 
ATOM     47  C   UNL     1       9.677   2.817  22.379  0.00  0.00    +0.000 C 
ATOM     48  C   UNL     1      10.528   1.638  21.864  0.00  0.00    +0.000 C 
ATOM     49  C   UNL     1      11.906   2.194  22.001  0.00  0.00    +0.000 A 
ATOM     50  C   UNL     1      13.094   1.752  21.454  0.00  0.00    +0.000 A 
ATOM     51  C   UNL     1      14.206   3.543  22.635  0.00  0.00    +0.000 A 
ATOM     52  C   UNL     1      14.263   2.444  21.774  0.00  0.00    +0.000 A 
ENDBRANCH  43  44
ENDBRANCH  40  43
ENDBRANCH  37  41
ENDBRANCH  36  37
ENDBRANCH   8  36
TORSDOF 14
ENDMDL
MODEL 10
REMARK minimizedAffinity -7.58988619
REMARK minimizedRMSD -1
REMARK  Name = 25056706
REMARK  16 active torsions:
REMARK  status: ('A' for Active; 'I' for Inactive)
REMARK    1  A    between atoms: S_2  and  C_25
REMARK    2  A    between atoms: S_2  and  C_39
REMARK    3  A    between atoms: O_6  and  C_31
REMARK    4  A    between atoms: O_9  and  N_16
REMARK    5  A    between atoms: O_9  and  C_43
REMARK    6  A    between atoms: O_10  and  C_47
REMARK    7  A    between atoms: N_13  and  CA_20
REMARK    8  A    between atoms: N_14  and  C_33
REMARK    9  A    between atoms: CA_22  and  C_31
REMARK   10  A    between atoms: C_23  and  C_25
REMARK   11  A    between atoms: C_32  and  C_37
REMARK   12  A    between atoms: C_33  and  C_38
REMARK   13  A    between atoms: C_37  and  C_41
REMARK   14  A    between atoms: C_43  and  C_45
REMARK   15  A    between atoms: C_43  and  C_46
REMARK   16  A    between atoms: C_43  and  C_47
REMARK                            x       y       z     vdW  Elec       q    Type
REMARK                         _______ _______ _______ _____ _____    ______ ____
ROOT
ATOM      1  S   UNL     1      16.674   5.012  19.808  0.00  0.00    +0.000 S 
ATOM      2  O   UNL     1      18.675   8.916  18.259  0.00  0.00    +0.000 OA
ATOM      3  N   UNL     1      17.893   7.370  19.861  0.00  0.00    +0.000 N 
ATOM      4  C   UNL     1      18.204   5.965  19.678  0.00  0.00    +0.000 C 
ATOM      5  CA  UNL     1      18.655   6.349  18.252  0.00  0.00    +0.000 C 
ATOM      6  C   UNL     1      18.469   7.819  18.724  0.00  0.00    +0.000 C 
ATOM      7  CA  UNL     1      17.212   7.862  20.928  0.00  0.00    +0.000 C 
ATOM      8  C   UNL     1      16.519   7.048  21.760  0.00  0.00    +0.000 C 
ATOM      9  C   UNL     1      16.356   5.548  21.524  0.00  0.00    +0.000 C 
ENDROOT
BRANCH   5  11
ATOM     10  O   UNL     1      20.188   6.964  15.811  0.00  0.00    +0.000 OA
ATOM     11  N   UNL     1      20.038   5.994  17.944  0.00  0.00    +0.000 N 
ATOM     12  C   UNL     1      20.653   6.342  16.752  0.00  0.00    +0.000 C 
ATOM     13  H   UNL     1      19.006   4.032  18.351  0.00  0.00    +0.000 HD
BRANCH  12  15
ATOM     14  N   UNL     1      23.031   6.521  17.243  0.00  0.00    +0.000 NA
ATOM     15  C   UNL     1      22.077   5.861  16.660  0.00  0.00    +0.000 C 
BRANCH  15  19
ATOM     16  S   UNL     1      22.130   2.454  14.594  0.00  0.00    +0.000 S 
ATOM     17  N   UNL     1      23.673   4.245  15.642  0.00  0.00    +0.000 NA
ATOM     18  N   UNL     1      24.789   2.475  14.541  0.00  0.00    +0.000 N 
ATOM     19  C   UNL     1      22.367   4.617  15.898  0.00  0.00    +0.000 A 
ATOM     20  C   UNL     1      21.394   3.771  15.409  0.00  0.00    +0.000 A 
ATOM     21  C   UNL     1      23.669   3.121  14.960  0.00  0.00    +0.000 A 
ATOM     22  H   UNL     1      25.058   7.342  14.526  0.00  0.00    +0.000 HD
ATOM     23  H   UNL     1      25.058   7.342  14.526  0.00  0.00    +0.000 HD
ENDBRANCH  15  19
BRANCH  14  24
ATOM     24  O   UNL     1      22.545   7.654  17.912  0.00  0.00    +0.000 OA
BRANCH  24  25
ATOM     25  C   UNL     1      23.634   8.278  18.573  0.00  0.00    +0.000 C 
ATOM     26  C   UNL     1      24.557   7.182  19.100  0.00  0.00    +0.000 C 
ATOM     27  C   UNL     1      24.333   9.193  17.573  0.00  0.00    +0.000 C 
BRANCH  25  29
ATOM     28  O   UNL     1      23.656   9.572  20.636  0.00  0.00    +0.000 OA
ATOM     29  C   UNL     1      23.018   9.076  19.715  0.00  0.00    +0.000 C 
BRANCH  29  30
ATOM     30  O   UNL     1      21.669   9.192  19.624  0.00  0.00    +0.000 OA
ATOM     31  H   UNL     1      29.968   9.867  18.187  0.00  0.00    +0.000 HD
ENDBRANCH  29  30
ENDBRANCH  25  29
ENDBRANCH  24  25
ENDBRANCH  14  24
ENDBRANCH  12  15
ENDBRANCH   5  11
BRANCH   7  33
ATOM     32  OXT UNL     1      18.095   9.949  21.642  0.00  0.00    +0.000 OA
ATOM     33  C   UNL     1      17.207   9.321  21.103  0.00  0.00    +0.000 C 
BRANCH  33  34
ATOM     34  O   UNL     1      16.076   9.831  20.575  0.00  0.00    +0.000 OA
ATOM     35  H   UNL     1      19.942   7.063  19.482  0.00  0.00    +0.000 HD
ENDBRANCH  33  34
ENDBRANCH   7  33
BRANCH   8  36
ATOM     36  C   UNL     1      15.806   7.504  23.009  0.00  0.00    +0.000 C 
BRANCH  36  37
ATOM     37  S   UNL     1      14.057   7.733  22.648  0.00  0.00    +0.000 S 
BRANCH  37  41
ATOM     38  S   UNL     1      13.643   5.737  24.949  0.00  0.00    +0.000 S 
ATOM     39  N   UNL     1      12.545   5.476  22.623  0.00  0.00    +0.000 NA
ATOM     40  C   UNL     1      12.142   4.405  23.398  0.00  0.00    +0.000 A 
ATOM     41  C   UNL     1      13.339   6.242  23.337  0.00  0.00    +0.000 A 
ATOM     42  C   UNL     1      12.634   4.376  24.687  0.00  0.00    +0.000 A 
BRANCH  40  43
ATOM     43  C   UNL     1      11.238   3.405  22.797  0.00  0.00    +0.000 C 
BRANCH  43  44
ATOM     44  N   UNL     1      10.092   2.969  23.698  0.00  0.00    +0.000 N 
ATOM     45  C   UNL     1       8.916   3.594  23.644  0.00  0.00    +0.000 A 
ATOM     46  C   UNL     1       8.577   4.757  22.773  0.00  0.00    +0.000 C 
ATOM     47  C   UNL     1       7.042   4.730  22.870  0.00  0.00    +0.000 C 
ATOM     48  C   UNL     1       6.684   4.107  24.234  0.00  0.00    +0.000 C 
ATOM     49  C   UNL     1       7.864   3.223  24.467  0.00  0.00    +0.000 A 
ATOM     50  C   UNL     1       8.028   2.189  25.366  0.00  0.00    +0.000 A 
ATOM     51  C   UNL     1      10.290   1.950  24.551  0.00  0.00    +0.000 A 
ATOM     52  C   UNL     1       9.262   1.538  25.403  0.00  0.00    +0.000 A 
ENDBRANCH  43  44
ENDBRANCH  40  43
ENDBRANCH  37  41
ENDBRANCH  36  37
ENDBRANCH   8  36
TORSDOF 14
ENDMDL
MODEL 11
REMARK minimizedAffinity -7.5284071
REMARK minimizedRMSD -1
REMARK  Name = 25056706
REMARK  16 active torsions:
REMARK  status: ('A' for Active; 'I' for Inactive)
REMARK    1  A    between atoms: S_2  and  C_25
REMARK    2  A    between atoms: S_2  and  C_39
REMARK    3  A    between atoms: O_6  and  C_31
REMARK    4  A    between atoms: O_9  and  N_16
REMARK    5  A    between atoms: O_9  and  C_43
REMARK    6  A    between atoms: O_10  and  C_47
REMARK    7  A    between atoms: N_13  and  CA_20
REMARK    8  A    between atoms: N_14  and  C_33
REMARK    9  A    between atoms: CA_22  and  C_31
REMARK   10  A    between atoms: C_23  and  C_25
REMARK   11  A    between atoms: C_32  and  C_37
REMARK   12  A    between atoms: C_33  and  C_38
REMARK   13  A    between atoms: C_37  and  C_41
REMARK   14  A    between atoms: C_43  and  C_45
REMARK   15  A    between atoms: C_43  and  C_46
REMARK   16  A    between atoms: C_43  and  C_47
REMARK                            x       y       z     vdW  Elec       q    Type
REMARK                         _______ _______ _______ _____ _____    ______ ____
ROOT
ATOM      1  S   UNL     1      16.765   1.856  23.503  0.00  0.00    +0.000 S 
ATOM      2  O   UNL     1      17.099   3.421  19.135  0.00  0.00    +0.000 OA
ATOM      3  N   UNL     1      16.112   2.315  20.970  0.00  0.00    +0.000 N 
ATOM      4  C   UNL     1      16.100   2.985  22.258  0.00  0.00    +0.000 C 
ATOM      5  CA  UNL     1      17.096   3.988  21.638  0.00  0.00    +0.000 C 
ATOM      6  C   UNL     1      16.797   3.264  20.295  0.00  0.00    +0.000 C 
ATOM      7  CA  UNL     1      15.548   1.101  20.744  0.00  0.00    +0.000 C 
ATOM      8  C   UNL     1      15.183   0.290  21.764  0.00  0.00    +0.000 C 
ATOM      9  C   UNL     1      15.458   0.610  23.232  0.00  0.00    +0.000 C 
ENDROOT
BRANCH   5  11
ATOM     10  O   UNL     1      18.005   6.139  23.437  0.00  0.00    +0.000 OA
ATOM     11  N   UNL     1      16.650   5.379  21.677  0.00  0.00    +0.000 N 
ATOM     12  C   UNL     1      17.156   6.304  22.576  0.00  0.00    +0.000 C 
ATOM     13  H   UNL     1      14.782   4.156  21.982  0.00  0.00    +0.000 HD
BRANCH  12  15
ATOM     14  N   UNL     1      15.548   8.025  23.188  0.00  0.00    +0.000 NA
ATOM     15  C   UNL     1      16.539   7.669  22.429  0.00  0.00    +0.000 C 
BRANCH  15  19
ATOM     16  S   UNL     1      18.659   9.897  19.895  0.00  0.00    +0.000 S 
ATOM     17  N   UNL     1      16.241   9.407  20.671  0.00  0.00    +0.000 NA
ATOM     18  N   UNL     1      16.441  11.036  18.970  0.00  0.00    +0.000 N 
ATOM     19  C   UNL     1      17.089   8.600  21.407  0.00  0.00    +0.000 A 
ATOM     20  C   UNL     1      18.433   8.726  21.127  0.00  0.00    +0.000 A 
ATOM     21  C   UNL     1      16.959  10.133  19.843  0.00  0.00    +0.000 A 
ATOM     22  H   UNL     1      13.719   7.063  19.725  0.00  0.00    +0.000 HD
ATOM     23  H   UNL     1      13.719   7.063  19.725  0.00  0.00    +0.000 HD
ENDBRANCH  15  19
BRANCH  14  24
ATOM     24  O   UNL     1      15.190   7.009  24.085  0.00  0.00    +0.000 OA
BRANCH  24  25
ATOM     25  C   UNL     1      13.775   6.997  24.197  0.00  0.00    +0.000 C 
ATOM     26  C   UNL     1      13.420   6.911  25.679  0.00  0.00    +0.000 C 
ATOM     27  C   UNL     1      13.238   8.266  23.544  0.00  0.00    +0.000 C 
BRANCH  25  29
ATOM     28  O   UNL     1      12.994   4.699  23.986  0.00  0.00    +0.000 OA
ATOM     29  C   UNL     1      13.315   5.753  23.448  0.00  0.00    +0.000 C 
BRANCH  29  30
ATOM     30  O   UNL     1      13.292   5.914  22.101  0.00  0.00    +0.000 OA
ATOM     31  H   UNL     1      11.627   6.550  30.360  0.00  0.00    +0.000 HD
ENDBRANCH  29  30
ENDBRANCH  25  29
ENDBRANCH  24  25
ENDBRANCH  14  24
ENDBRANCH  12  15
ENDBRANCH   5  11
BRANCH   7  33
ATOM     32  OXT UNL     1      14.455   0.936  18.640  0.00  0.00    +0.000 OA
ATOM     33  C   UNL     1      15.412   0.679  19.342  0.00  0.00    +0.000 C 
BRANCH  33  34
ATOM     34  O   UNL     1      16.504  -0.022  18.977  0.00  0.00    +0.000 OA
ATOM     35  H   UNL     1      15.115   4.261  20.857  0.00  0.00    +0.000 HD
ENDBRANCH  33  34
ENDBRANCH   7  33
BRANCH   8  36
ATOM     36  C   UNL     1      14.479  -1.035  21.597  0.00  0.00    +0.000 C 
BRANCH  36  37
ATOM     37  S   UNL     1      13.495  -1.376  23.066  0.00  0.00    +0.000 S 
BRANCH  37  41
ATOM     38  S   UNL     1      10.757  -0.988  21.724  0.00  0.00    +0.000 S 
ATOM     39  N   UNL     1      11.833   0.762  23.294  0.00  0.00    +0.000 NA
ATOM     40  C   UNL     1      10.616   1.266  22.879  0.00  0.00    +0.000 A 
ATOM     41  C   UNL     1      12.012  -0.421  22.747  0.00  0.00    +0.000 A 
ATOM     42  C   UNL     1       9.890   0.460  22.025  0.00  0.00    +0.000 A 
BRANCH  40  43
ATOM     43  C   UNL     1      10.202   2.595  23.371  0.00  0.00    +0.000 C 
BRANCH  43  44
ATOM     44  N   UNL     1       9.022   2.571  24.332  0.00  0.00    +0.000 N 
ATOM     45  C   UNL     1       8.012   3.426  24.179  0.00  0.00    +0.000 A 
ATOM     46  C   UNL     1       7.904   4.484  23.134  0.00  0.00    +0.000 C 
ATOM     47  C   UNL     1       6.406   4.816  23.235  0.00  0.00    +0.000 C 
ATOM     48  C   UNL     1       5.970   4.509  24.682  0.00  0.00    +0.000 C 
ATOM     49  C   UNL     1       6.935   3.432  25.053  0.00  0.00    +0.000 A 
ATOM     50  C   UNL     1       6.900   2.541  26.106  0.00  0.00    +0.000 A 
ATOM     51  C   UNL     1       9.023   1.680  25.337  0.00  0.00    +0.000 A 
ATOM     52  C   UNL     1       7.961   1.646  26.246  0.00  0.00    +0.000 A 
ENDBRANCH  43  44
ENDBRANCH  40  43
ENDBRANCH  37  41
ENDBRANCH  36  37
ENDBRANCH   8  36
TORSDOF 14
ENDMDL
MODEL 12
REMARK minimizedAffinity -7.5164876
REMARK minimizedRMSD -1
REMARK  Name = 25056706
REMARK  16 active torsions:
REMARK  status: ('A' for Active; 'I' for Inactive)
REMARK    1  A    between atoms: S_2  and  C_25
REMARK    2  A    between atoms: S_2  and  C_39
REMARK    3  A    between atoms: O_6  and  C_31
REMARK    4  A    between atoms: O_9  and  N_16
REMARK    5  A    between atoms: O_9  and  C_43
REMARK    6  A    between atoms: O_10  and  C_47
REMARK    7  A    between atoms: N_13  and  CA_20
REMARK    8  A    between atoms: N_14  and  C_33
REMARK    9  A    between atoms: CA_22  and  C_31
REMARK   10  A    between atoms: C_23  and  C_25
REMARK   11  A    between atoms: C_32  and  C_37
REMARK   12  A    between atoms: C_33  and  C_38
REMARK   13  A    between atoms: C_37  and  C_41
REMARK   14  A    between atoms: C_43  and  C_45
REMARK   15  A    between atoms: C_43  and  C_46
REMARK   16  A    between atoms: C_43  and  C_47
REMARK                            x       y       z     vdW  Elec       q    Type
REMARK                         _______ _______ _______ _____ _____    ______ ____
ROOT
ATOM      1  S   UNL     1      16.478   4.775  24.010  0.00  0.00    +0.000 S 
ATOM      2  O   UNL     1      16.880   2.128  20.207  0.00  0.00    +0.000 OA
ATOM      3  N   UNL     1      15.762   3.329  21.901  0.00  0.00    +0.000 N 
ATOM      4  C   UNL     1      16.225   4.666  22.223  0.00  0.00    +0.000 C 
ATOM      5  CA  UNL     1      17.471   4.337  21.373  0.00  0.00    +0.000 C 
ATOM      6  C   UNL     1      16.700   3.047  20.970  0.00  0.00    +0.000 C 
ATOM      7  CA  UNL     1      14.690   2.737  22.488  0.00  0.00    +0.000 C 
ATOM      8  C   UNL     1      14.143   3.233  23.623  0.00  0.00    +0.000 C 
ATOM      9  C   UNL     1      14.729   4.417  24.390  0.00  0.00    +0.000 C 
ENDROOT
BRANCH   5  11
ATOM     10  O   UNL     1      19.740   6.177  20.988  0.00  0.00    +0.000 OA
ATOM     11  N   UNL     1      17.703   5.261  20.266  0.00  0.00    +0.000 N 
ATOM     12  C   UNL     1      18.817   6.081  20.196  0.00  0.00    +0.000 C 
ATOM     13  H   UNL     1      15.701   5.853  21.112  0.00  0.00    +0.000 HD
BRANCH  12  15
ATOM     14  N   UNL     1      18.149   8.052  18.932  0.00  0.00    +0.000 NA
ATOM     15  C   UNL     1      18.835   6.950  18.965  0.00  0.00    +0.000 C 
BRANCH  15  19
ATOM     16  S   UNL     1      20.495   5.330  15.726  0.00  0.00    +0.000 S 
ATOM     17  N   UNL     1      20.854   7.153  17.525  0.00  0.00    +0.000 NA
ATOM     18  N   UNL     1      22.570   6.983  15.907  0.00  0.00    +0.000 N 
ATOM     19  C   UNL     1      19.653   6.526  17.798  0.00  0.00    +0.000 A 
ATOM     20  C   UNL     1      19.292   5.513  16.934  0.00  0.00    +0.000 A 
ATOM     21  C   UNL     1      21.385   6.604  16.454  0.00  0.00    +0.000 A 
ATOM     22  H   UNL     1      19.923  10.584  17.853  0.00  0.00    +0.000 HD
ATOM     23  H   UNL     1      19.923  10.584  17.853  0.00  0.00    +0.000 HD
ENDBRANCH  15  19
BRANCH  14  24
ATOM     24  O   UNL     1      17.457   8.270  20.132  0.00  0.00    +0.000 OA
BRANCH  24  25
ATOM     25  C   UNL     1      17.502   9.658  20.422  0.00  0.00    +0.000 C 
ATOM     26  C   UNL     1      16.780   9.887  21.747  0.00  0.00    +0.000 C 
ATOM     27  C   UNL     1      18.967  10.082  20.479  0.00  0.00    +0.000 C 
BRANCH  25  29
ATOM     28  O   UNL     1      17.327  10.979  18.383  0.00  0.00    +0.000 OA
ATOM     29  C   UNL     1      16.774  10.342  19.272  0.00  0.00    +0.000 C 
BRANCH  29  30
ATOM     30  O   UNL     1      15.427  10.182  19.317  0.00  0.00    +0.000 OA
ATOM     31  H   UNL     1      23.728   8.765  18.623  0.00  0.00    +0.000 HD
ENDBRANCH  29  30
ENDBRANCH  25  29
ENDBRANCH  24  25
ENDBRANCH  14  24
ENDBRANCH  12  15
ENDBRANCH   5  11
BRANCH   7  33
ATOM     32  OXT UNL     1      13.351   1.460  20.998  0.00  0.00    +0.000 OA
ATOM     33  C   UNL     1      14.191   1.499  21.873  0.00  0.00    +0.000 C 
BRANCH  33  34
ATOM     34  O   UNL     1      14.810   0.441  22.433  0.00  0.00    +0.000 OA
ATOM     35  H   UNL     1      15.686   4.658  20.142  0.00  0.00    +0.000 HD
ENDBRANCH  33  34
ENDBRANCH   7  33
BRANCH   8  36
ATOM     36  C   UNL     1      12.906   2.684  24.290  0.00  0.00    +0.000 C 
BRANCH  36  37
ATOM     37  S   UNL     1      13.341   2.031  25.910  0.00  0.00    +0.000 S 
BRANCH  37  41
ATOM     38  S   UNL     1      11.491   1.860  28.359  0.00  0.00    +0.000 S 
ATOM     39  N   UNL     1      10.664   1.570  25.927  0.00  0.00    +0.000 NA
ATOM     40  C   UNL     1       9.570   1.431  26.759  0.00  0.00    +0.000 A 
ATOM     41  C   UNL     1      11.730   1.799  26.661  0.00  0.00    +0.000 A 
ATOM     42  C   UNL     1       9.822   1.557  28.110  0.00  0.00    +0.000 A 
BRANCH  40  43
ATOM     43  C   UNL     1       8.253   1.166  26.148  0.00  0.00    +0.000 C 
BRANCH  43  44
ATOM     44  N   UNL     1       7.310   2.361  26.140  0.00  0.00    +0.000 N 
ATOM     45  C   UNL     1       7.129   3.069  25.026  0.00  0.00    +0.000 A 
ATOM     46  C   UNL     1       7.799   2.833  23.715  0.00  0.00    +0.000 C 
ATOM     47  C   UNL     1       6.894   3.668  22.792  0.00  0.00    +0.000 C 
ATOM     48  C   UNL     1       6.297   4.803  23.649  0.00  0.00    +0.000 C 
ATOM     49  C   UNL     1       6.287   4.170  25.001  0.00  0.00    +0.000 A 
ATOM     50  C   UNL     1       5.621   4.552  26.148  0.00  0.00    +0.000 A 
ATOM     51  C   UNL     1       6.673   2.691  27.276  0.00  0.00    +0.000 A 
ATOM     52  C   UNL     1       5.814   3.794  27.303  0.00  0.00    +0.000 A 
ENDBRANCH  43  44
ENDBRANCH  40  43
ENDBRANCH  37  41
ENDBRANCH  36  37
ENDBRANCH   8  36
TORSDOF 14
ENDMDL
MODEL 13
REMARK minimizedAffinity -7.45270109
REMARK minimizedRMSD -1
REMARK  Name = 25056706
REMARK  16 active torsions:
REMARK  status: ('A' for Active; 'I' for Inactive)
REMARK    1  A    between atoms: S_2  and  C_25
REMARK    2  A    between atoms: S_2  and  C_39
REMARK    3  A    between atoms: O_6  and  C_31
REMARK    4  A    between atoms: O_9  and  N_16
REMARK    5  A    between atoms: O_9  and  C_43
REMARK    6  A    between atoms: O_10  and  C_47
REMARK    7  A    between atoms: N_13  and  CA_20
REMARK    8  A    between atoms: N_14  and  C_33
REMARK    9  A    between atoms: CA_22  and  C_31
REMARK   10  A    between atoms: C_23  and  C_25
REMARK   11  A    between atoms: C_32  and  C_37
REMARK   12  A    between atoms: C_33  and  C_38
REMARK   13  A    between atoms: C_37  and  C_41
REMARK   14  A    between atoms: C_43  and  C_45
REMARK   15  A    between atoms: C_43  and  C_46
REMARK   16  A    between atoms: C_43  and  C_47
REMARK                            x       y       z     vdW  Elec       q    Type
REMARK                         _______ _______ _______ _____ _____    ______ ____
ROOT
ATOM      1  S   UNL     1      17.238   2.464  22.880  0.00  0.00    +0.000 S 
ATOM      2  O   UNL     1      17.165   3.475  18.341  0.00  0.00    +0.000 OA
ATOM      3  N   UNL     1      16.394   2.539  20.364  0.00  0.00    +0.000 N 
ATOM      4  C   UNL     1      16.401   3.366  21.557  0.00  0.00    +0.000 C 
ATOM      5  CA  UNL     1      17.264   4.358  20.749  0.00  0.00    +0.000 C 
ATOM      6  C   UNL     1      16.949   3.445  19.529  0.00  0.00    +0.000 C 
ATOM      7  CA  UNL     1      15.926   1.265  20.330  0.00  0.00    +0.000 C 
ATOM      8  C   UNL     1      15.697   0.565  21.466  0.00  0.00    +0.000 C 
ATOM      9  C   UNL     1      16.032   1.093  22.860  0.00  0.00    +0.000 C 
ENDROOT
BRANCH   5  11
ATOM     10  O   UNL     1      18.069   6.781  22.221  0.00  0.00    +0.000 OA
ATOM     11  N   UNL     1      16.701   5.701  20.648  0.00  0.00    +0.000 N 
ATOM     12  C   UNL     1      17.168   6.768  21.398  0.00  0.00    +0.000 C 
ATOM     13  H   UNL     1      14.964   4.378  21.206  0.00  0.00    +0.000 HD
BRANCH  12  15
ATOM     14  N   UNL     1      15.336   8.327  21.774  0.00  0.00    +0.000 NA
ATOM     15  C   UNL     1      16.427   8.051  21.126  0.00  0.00    +0.000 C 
BRANCH  15  19
ATOM     16  S   UNL     1      17.284  10.968  18.550  0.00  0.00    +0.000 S 
ATOM     17  N   UNL     1      18.163   8.717  19.472  0.00  0.00    +0.000 NA
ATOM     18  N   UNL     1      19.529   9.736  17.833  0.00  0.00    +0.000 N 
ATOM     19  C   UNL     1      16.970   8.993  20.111  0.00  0.00    +0.000 A 
ATOM     20  C   UNL     1      16.347  10.167  19.743  0.00  0.00    +0.000 A 
ATOM     21  C   UNL     1      18.428   9.690  18.627  0.00  0.00    +0.000 A 
ATOM     22  H   UNL     1      20.211   7.754  22.234  0.00  0.00    +0.000 HD
ATOM     23  H   UNL     1      20.211   7.754  22.234  0.00  0.00    +0.000 HD
ENDBRANCH  15  19
BRANCH  14  24
ATOM     24  O   UNL     1      15.004   7.316  22.687  0.00  0.00    +0.000 OA
BRANCH  24  25
ATOM     25  C   UNL     1      13.662   7.518  23.100  0.00  0.00    +0.000 C 
ATOM     26  C   UNL     1      12.752   6.761  22.136  0.00  0.00    +0.000 C 
ATOM     27  C   UNL     1      13.529   7.019  24.536  0.00  0.00    +0.000 C 
BRANCH  25  29
ATOM     28  O   UNL     1      14.144   9.864  23.541  0.00  0.00    +0.000 OA
ATOM     29  C   UNL     1      13.427   9.020  23.015  0.00  0.00    +0.000 C 
BRANCH  29  30
ATOM     30  O   UNL     1      12.329   9.353  22.290  0.00  0.00    +0.000 OA
ATOM     31  H   UNL     1      19.952   6.539  24.607  0.00  0.00    +0.000 HD
ENDBRANCH  29  30
ENDBRANCH  25  29
ENDBRANCH  24  25
ENDBRANCH  14  24
ENDBRANCH  12  15
ENDBRANCH   5  11
BRANCH   7  33
ATOM     32  OXT UNL     1      16.615   0.079  18.390  0.00  0.00    +0.000 OA
ATOM     33  C   UNL     1      15.742   0.657  19.004  0.00  0.00    +0.000 C 
BRANCH  33  34
ATOM     34  O   UNL     1      14.471   0.845  18.598  0.00  0.00    +0.000 OA
ATOM     35  H   UNL     1      17.123  -0.970  22.269  0.00  0.00    +0.000 HD
ENDBRANCH  33  34
ENDBRANCH   7  33
BRANCH   8  36
ATOM     36  C   UNL     1      15.103  -0.821  21.515  0.00  0.00    +0.000 C 
BRANCH  36  37
ATOM     37  S   UNL     1      14.323  -1.080  23.117  0.00  0.00    +0.000 S 
BRANCH  37  41
ATOM     38  S   UNL     1      11.889  -1.048  21.240  0.00  0.00    +0.000 S 
ATOM     39  N   UNL     1      11.833  -0.137  23.658  0.00  0.00    +0.000 NA
ATOM     40  C   UNL     1      10.574   0.039  23.117  0.00  0.00    +0.000 A 
ATOM     41  C   UNL     1      12.608  -0.701  22.759  0.00  0.00    +0.000 A 
ATOM     42  C   UNL     1      10.413  -0.394  21.817  0.00  0.00    +0.000 A 
BRANCH  40  43
ATOM     43  C   UNL     1       9.531   0.661  23.955  0.00  0.00    +0.000 C 
BRANCH  43  44
ATOM     44  N   UNL     1       8.919   1.923  23.366  0.00  0.00    +0.000 N 
ATOM     45  C   UNL     1       7.721   1.883  22.784  0.00  0.00    +0.000 A 
ATOM     46  C   UNL     1       6.868   0.672  22.607  0.00  0.00    +0.000 C 
ATOM     47  C   UNL     1       5.521   1.334  22.273  0.00  0.00    +0.000 C 
ATOM     48  C   UNL     1       5.834   2.690  21.607  0.00  0.00    +0.000 C 
ATOM     49  C   UNL     1       7.152   3.018  22.226  0.00  0.00    +0.000 A 
ATOM     50  C   UNL     1       7.833   4.218  22.267  0.00  0.00    +0.000 A 
ATOM     51  C   UNL     1       9.610   3.073  23.436  0.00  0.00    +0.000 A 
ATOM     52  C   UNL     1       9.082   4.245  22.888  0.00  0.00    +0.000 A 
ENDBRANCH  43  44
ENDBRANCH  40  43
ENDBRANCH  37  41
ENDBRANCH  36  37
ENDBRANCH   8  36
TORSDOF 14
ENDMDL
MODEL 14
REMARK minimizedAffinity -7.38744402
REMARK minimizedRMSD -1
REMARK  Name = 25056706
REMARK  16 active torsions:
REMARK  status: ('A' for Active; 'I' for Inactive)
REMARK    1  A    between atoms: S_2  and  C_25
REMARK    2  A    between atoms: S_2  and  C_39
REMARK    3  A    between atoms: O_6  and  C_31
REMARK    4  A    between atoms: O_9  and  N_16
REMARK    5  A    between atoms: O_9  and  C_43
REMARK    6  A    between atoms: O_10  and  C_47
REMARK    7  A    between atoms: N_13  and  CA_20
REMARK    8  A    between atoms: N_14  and  C_33
REMARK    9  A    between atoms: CA_22  and  C_31
REMARK   10  A    between atoms: C_23  and  C_25
REMARK   11  A    between atoms: C_32  and  C_37
REMARK   12  A    between atoms: C_33  and  C_38
REMARK   13  A    between atoms: C_37  and  C_41
REMARK   14  A    between atoms: C_43  and  C_45
REMARK   15  A    between atoms: C_43  and  C_46
REMARK   16  A    between atoms: C_43  and  C_47
REMARK                            x       y       z     vdW  Elec       q    Type
REMARK                         _______ _______ _______ _____ _____    ______ ____
ROOT
ATOM      1  S   UNL     1      16.997   5.567  22.804  0.00  0.00    +0.000 S 
ATOM      2  O   UNL     1      12.515   6.497  23.630  0.00  0.00    +0.000 OA
ATOM      3  N   UNL     1      14.611   6.708  22.568  0.00  0.00    +0.000 N 
ATOM      4  C   UNL     1      15.308   5.500  22.165  0.00  0.00    +0.000 C 
ATOM      5  CA  UNL     1      14.278   4.734  23.022  0.00  0.00    +0.000 C 
ATOM      6  C   UNL     1      13.552   6.103  23.150  0.00  0.00    +0.000 C 
ATOM      7  CA  UNL     1      15.073   7.963  22.333  0.00  0.00    +0.000 C 
ATOM      8  C   UNL     1      16.355   8.185  21.960  0.00  0.00    +0.000 C 
ATOM      9  C   UNL     1      17.408   7.082  21.872  0.00  0.00    +0.000 C 
ENDROOT
BRANCH   5  11
ATOM     10  O   UNL     1      12.994   2.302  24.083  0.00  0.00    +0.000 OA
ATOM     11  N   UNL     1      13.519   3.724  22.290  0.00  0.00    +0.000 N 
ATOM     12  C   UNL     1      12.959   2.615  22.904  0.00  0.00    +0.000 C 
ATOM     13  H   UNL     1      15.539   3.776  21.292  0.00  0.00    +0.000 HD
BRANCH  12  15
ATOM     14  N   UNL     1      10.960   1.879  21.726  0.00  0.00    +0.000 NA
ATOM     15  C   UNL     1      12.229   1.714  21.943  0.00  0.00    +0.000 C 
BRANCH  15  19
ATOM     16  S   UNL     1      13.783  -1.611  20.393  0.00  0.00    +0.000 S 
ATOM     17  N   UNL     1      14.079   0.957  20.459  0.00  0.00    +0.000 NA
ATOM     18  N   UNL     1      15.657  -0.203  19.135  0.00  0.00    +0.000 N 
ATOM     19  C   UNL     1      12.988   0.641  21.247  0.00  0.00    +0.000 A 
ATOM     20  C   UNL     1      12.676  -0.700  21.333  0.00  0.00    +0.000 A 
ATOM     21  C   UNL     1      14.576  -0.152  19.958  0.00  0.00    +0.000 A 
ATOM     22  H   UNL     1      12.781   3.691  18.564  0.00  0.00    +0.000 HD
ATOM     23  H   UNL     1      12.781   3.691  18.564  0.00  0.00    +0.000 HD
ENDBRANCH  15  19
BRANCH  14  24
ATOM     24  O   UNL     1      10.439   2.945  22.472  0.00  0.00    +0.000 OA
BRANCH  24  25
ATOM     25  C   UNL     1       9.213   2.525  23.048  0.00  0.00    +0.000 C 
ATOM     26  C   UNL     1       8.866   1.154  22.472  0.00  0.00    +0.000 C 
ATOM     27  C   UNL     1       9.391   2.489  24.563  0.00  0.00    +0.000 C 
BRANCH  25  29
ATOM     28  O   UNL     1       8.137   4.709  23.091  0.00  0.00    +0.000 OA
ATOM     29  C   UNL     1       8.186   3.571  22.638  0.00  0.00    +0.000 C 
BRANCH  29  30
ATOM     30  O   UNL     1       7.306   3.126  21.705  0.00  0.00    +0.000 OA
ATOM     31  H   UNL     1      14.344   5.642  25.645  0.00  0.00    +0.000 HD
ENDBRANCH  29  30
ENDBRANCH  25  29
ENDBRANCH  24  25
ENDBRANCH  14  24
ENDBRANCH  12  15
ENDBRANCH   5  11
BRANCH   7  33
ATOM     32  OXT UNL     1      14.158   9.794  23.539  0.00  0.00    +0.000 OA
ATOM     33  C   UNL     1      14.137   9.073  22.563  0.00  0.00    +0.000 C 
BRANCH  33  34
ATOM     34  O   UNL     1      13.274   9.151  21.531  0.00  0.00    +0.000 OA
ATOM     35  H   UNL     1      18.037   9.118  22.587  0.00  0.00    +0.000 HD
ENDBRANCH  33  34
ENDBRANCH   7  33
BRANCH   8  36
ATOM     36  C   UNL     1      16.922   9.537  21.602  0.00  0.00    +0.000 C 
BRANCH  36  37
ATOM     37  S   UNL     1      16.732   9.814  19.833  0.00  0.00    +0.000 S 
BRANCH  37  41
ATOM     38  S   UNL     1      19.765   9.527  20.242  0.00  0.00    +0.000 S 
ATOM     39  N   UNL     1      18.595   9.164  17.965  0.00  0.00    +0.000 NA
ATOM     40  C   UNL     1      19.948   8.954  17.778  0.00  0.00    +0.000 A 
ATOM     41  C   UNL     1      18.384   9.472  19.226  0.00  0.00    +0.000 A 
ATOM     42  C   UNL     1      20.741   9.105  18.897  0.00  0.00    +0.000 A 
BRANCH  40  43
ATOM     43  C   UNL     1      20.421   8.594  16.427  0.00  0.00    +0.000 C 
BRANCH  43  44
ATOM     44  N   UNL     1      20.958   7.175  16.305  0.00  0.00    +0.000 N 
ATOM     45  C   UNL     1      22.261   6.961  16.122  0.00  0.00    +0.000 A 
ATOM     46  C   UNL     1      23.315   8.007  15.988  0.00  0.00    +0.000 C 
ATOM     47  C   UNL     1      24.575   7.156  16.216  0.00  0.00    +0.000 C 
ATOM     48  C   UNL     1      24.242   5.721  15.757  0.00  0.00    +0.000 C 
ATOM     49  C   UNL     1      22.769   5.677  15.993  0.00  0.00    +0.000 A 
ATOM     50  C   UNL     1      21.917   4.593  16.049  0.00  0.00    +0.000 A 
ATOM     51  C   UNL     1      20.096   6.147  16.377  0.00  0.00    +0.000 A 
ATOM     52  C   UNL     1      20.557   4.834  16.251  0.00  0.00    +0.000 A 
ENDBRANCH  43  44
ENDBRANCH  40  43
ENDBRANCH  37  41
ENDBRANCH  36  37
ENDBRANCH   8  36
TORSDOF 14
ENDMDL
MODEL 15
REMARK minimizedAffinity -7.38374949
REMARK minimizedRMSD -1
REMARK  Name = 25056706
REMARK  16 active torsions:
REMARK  status: ('A' for Active; 'I' for Inactive)
REMARK    1  A    between atoms: S_2  and  C_25
REMARK    2  A    between atoms: S_2  and  C_39
REMARK    3  A    between atoms: O_6  and  C_31
REMARK    4  A    between atoms: O_9  and  N_16
REMARK    5  A    between atoms: O_9  and  C_43
REMARK    6  A    between atoms: O_10  and  C_47
REMARK    7  A    between atoms: N_13  and  CA_20
REMARK    8  A    between atoms: N_14  and  C_33
REMARK    9  A    between atoms: CA_22  and  C_31
REMARK   10  A    between atoms: C_23  and  C_25
REMARK   11  A    between atoms: C_32  and  C_37
REMARK   12  A    between atoms: C_33  and  C_38
REMARK   13  A    between atoms: C_37  and  C_41
REMARK   14  A    between atoms: C_43  and  C_45
REMARK   15  A    between atoms: C_43  and  C_46
REMARK   16  A    between atoms: C_43  and  C_47
REMARK                            x       y       z     vdW  Elec       q    Type
REMARK                         _______ _______ _______ _____ _____    ______ ____
ROOT
ATOM      1  S   UNL     1      16.020   5.256  24.225  0.00  0.00    +0.000 S 
ATOM      2  O   UNL     1      12.596   8.261  23.285  0.00  0.00    +0.000 OA
ATOM      3  N   UNL     1      14.611   7.090  22.921  0.00  0.00    +0.000 N 
ATOM      4  C   UNL     1      14.628   5.656  23.143  0.00  0.00    +0.000 C 
ATOM      5  CA  UNL     1      13.257   5.841  23.827  0.00  0.00    +0.000 C 
ATOM      6  C   UNL     1      13.331   7.302  23.298  0.00  0.00    +0.000 C 
ATOM      7  CA  UNL     1      15.677   7.799  22.470  0.00  0.00    +0.000 C 
ATOM      8  C   UNL     1      16.925   7.274  22.468  0.00  0.00    +0.000 C 
ATOM      9  C   UNL     1      17.261   5.904  23.053  0.00  0.00    +0.000 C 
ENDROOT
BRANCH   5  11
ATOM     10  O   UNL     1      11.925   3.466  24.954  0.00  0.00    +0.000 OA
ATOM     11  N   UNL     1      12.181   5.049  23.239  0.00  0.00    +0.000 N 
ATOM     12  C   UNL     1      11.631   3.944  23.870  0.00  0.00    +0.000 C 
ATOM     13  H   UNL     1      13.848   4.987  21.724  0.00  0.00    +0.000 HD
BRANCH  12  15
ATOM     14  N   UNL     1      10.837   2.425  22.142  0.00  0.00    +0.000 NA
ATOM     15  C   UNL     1      10.540   3.287  23.067  0.00  0.00    +0.000 C 
BRANCH  15  19
ATOM     16  S   UNL     1       6.831   4.719  23.315  0.00  0.00    +0.000 S 
ATOM     17  N   UNL     1       8.427   2.961  24.340  0.00  0.00    +0.000 NA
ATOM     18  N   UNL     1       6.254   3.010  25.270  0.00  0.00    +0.000 N 
ATOM     19  C   UNL     1       9.124   3.636  23.356  0.00  0.00    +0.000 A 
ATOM     20  C   UNL     1       8.425   4.623  22.693  0.00  0.00    +0.000 A 
ATOM     21  C   UNL     1       7.207   3.448  24.406  0.00  0.00    +0.000 A 
ATOM     22  H   UNL     1       9.271  -0.423  23.576  0.00  0.00    +0.000 HD
ATOM     23  H   UNL     1       9.271  -0.423  23.576  0.00  0.00    +0.000 HD
ENDBRANCH  15  19
BRANCH  14  24
ATOM     24  O   UNL     1      12.222   2.233  22.035  0.00  0.00    +0.000 OA
BRANCH  24  25
ATOM     25  C   UNL     1      12.473   0.837  22.005  0.00  0.00    +0.000 C 
ATOM     26  C   UNL     1      11.154   0.126  21.716  0.00  0.00    +0.000 C 
ATOM     27  C   UNL     1      13.524   0.569  20.932  0.00  0.00    +0.000 C 
BRANCH  25  29
ATOM     28  O   UNL     1      13.981   0.998  23.911  0.00  0.00    +0.000 OA
ATOM     29  C   UNL     1      12.997   0.484  23.391  0.00  0.00    +0.000 C 
BRANCH  29  30
ATOM     30  O   UNL     1      12.264  -0.472  24.016  0.00  0.00    +0.000 OA
ATOM     31  H   UNL     1      14.762   6.759  20.429  0.00  0.00    +0.000 HD
ENDBRANCH  29  30
ENDBRANCH  25  29
ENDBRANCH  24  25
ENDBRANCH  14  24
ENDBRANCH  12  15
ENDBRANCH   5  11
BRANCH   7  33
ATOM     32  OXT UNL     1      15.216   9.522  20.900  0.00  0.00    +0.000 OA
ATOM     33  C   UNL     1      15.428   9.185  22.047  0.00  0.00    +0.000 C 
BRANCH  33  34
ATOM     34  O   UNL     1      15.472   9.996  23.122  0.00  0.00    +0.000 OA
ATOM     35  H   UNL     1      13.273   6.001  21.388  0.00  0.00    +0.000 HD
ENDBRANCH  33  34
ENDBRANCH   7  33
BRANCH   8  36
ATOM     36  C   UNL     1      18.146   7.964  21.911  0.00  0.00    +0.000 C 
BRANCH  36  37
ATOM     37  S   UNL     1      19.060   6.814  20.870  0.00  0.00    +0.000 S 
BRANCH  37  41
ATOM     38  S   UNL     1      18.567   9.300  19.131  0.00  0.00    +0.000 S 
ATOM     39  N   UNL     1      20.170   7.387  18.458  0.00  0.00    +0.000 NA
ATOM     40  C   UNL     1      20.197   8.329  17.447  0.00  0.00    +0.000 A 
ATOM     41  C   UNL     1      19.345   7.794  19.397  0.00  0.00    +0.000 A 
ATOM     42  C   UNL     1      19.393   9.435  17.635  0.00  0.00    +0.000 A 
BRANCH  40  43
ATOM     43  C   UNL     1      21.063   8.080  16.279  0.00  0.00    +0.000 C 
BRANCH  43  44
ATOM     44  N   UNL     1      21.401   6.615  16.046  0.00  0.00    +0.000 N 
ATOM     45  C   UNL     1      22.652   6.179  16.194  0.00  0.00    +0.000 A 
ATOM     46  C   UNL     1      23.836   7.010  16.555  0.00  0.00    +0.000 C 
ATOM     47  C   UNL     1      24.830   5.907  16.958  0.00  0.00    +0.000 C 
ATOM     48  C   UNL     1      24.449   4.641  16.164  0.00  0.00    +0.000 C 
ATOM     49  C   UNL     1      22.984   4.851  15.971  0.00  0.00    +0.000 A 
ATOM     50  C   UNL     1      22.008   3.955  15.585  0.00  0.00    +0.000 A 
ATOM     51  C   UNL     1      20.419   5.773  15.683  0.00  0.00    +0.000 A 
ATOM     52  C   UNL     1      20.701   4.425  15.445  0.00  0.00    +0.000 A 
ENDBRANCH  43  44
ENDBRANCH  40  43
ENDBRANCH  37  41
ENDBRANCH  36  37
ENDBRANCH   8  36
TORSDOF 14
ENDMDL
MODEL 16
REMARK minimizedAffinity -7.20283985
REMARK minimizedRMSD -1
REMARK  Name = 25056706
REMARK  16 active torsions:
REMARK  status: ('A' for Active; 'I' for Inactive)
REMARK    1  A    between atoms: S_2  and  C_25
REMARK    2  A    between atoms: S_2  and  C_39
REMARK    3  A    between atoms: O_6  and  C_31
REMARK    4  A    between atoms: O_9  and  N_16
REMARK    5  A    between atoms: O_9  and  C_43
REMARK    6  A    between atoms: O_10  and  C_47
REMARK    7  A    between atoms: N_13  and  CA_20
REMARK    8  A    between atoms: N_14  and  C_33
REMARK    9  A    between atoms: CA_22  and  C_31
REMARK   10  A    between atoms: C_23  and  C_25
REMARK   11  A    between atoms: C_32  and  C_37
REMARK   12  A    between atoms: C_33  and  C_38
REMARK   13  A    between atoms: C_37  and  C_41
REMARK   14  A    between atoms: C_43  and  C_45
REMARK   15  A    between atoms: C_43  and  C_46
REMARK   16  A    between atoms: C_43  and  C_47
REMARK                            x       y       z     vdW  Elec       q    Type
REMARK                         _______ _______ _______ _____ _____    ______ ____
ROOT
ATOM      1  S   UNL     1      17.328   5.834  23.418  0.00  0.00    +0.000 S 
ATOM      2  O   UNL     1      13.165   7.348  24.834  0.00  0.00    +0.000 OA
ATOM      3  N   UNL     1      15.026   7.157  23.398  0.00  0.00    +0.000 N 
ATOM      4  C   UNL     1      15.547   5.833  23.112  0.00  0.00    +0.000 C 
ATOM      5  CA  UNL     1      14.652   5.335  24.267  0.00  0.00    +0.000 C 
ATOM      6  C   UNL     1      14.060   6.773  24.262  0.00  0.00    +0.000 C 
ATOM      7  CA  UNL     1      15.520   8.298  22.853  0.00  0.00    +0.000 C 
ATOM      8  C   UNL     1      16.719   8.320  22.225  0.00  0.00    +0.000 C 
ATOM      9  C   UNL     1      17.656   7.116  22.160  0.00  0.00    +0.000 C 
ENDROOT
BRANCH   5  11
ATOM     10  O   UNL     1      13.016   3.630  26.028  0.00  0.00    +0.000 OA
ATOM     11  N   UNL     1      13.698   4.297  23.883  0.00  0.00    +0.000 N 
ATOM     12  C   UNL     1      12.982   3.557  24.810  0.00  0.00    +0.000 C 
ATOM     13  H   UNL     1      15.650   3.674  22.946  0.00  0.00    +0.000 HD
BRANCH  12  15
ATOM     14  N   UNL     1      12.541   1.420  23.731  0.00  0.00    +0.000 NA
ATOM     15  C   UNL     1      12.066   2.544  24.176  0.00  0.00    +0.000 C 
BRANCH  15  19
ATOM     16  S   UNL     1       8.096   2.811  24.376  0.00  0.00    +0.000 S 
ATOM     17  N   UNL     1      10.174   3.881  23.268  0.00  0.00    +0.000 NA
ATOM     18  N   UNL     1       8.103   4.858  22.677  0.00  0.00    +0.000 N 
ATOM     19  C   UNL     1      10.614   2.851  24.077  0.00  0.00    +0.000 A 
ATOM     20  C   UNL     1       9.635   2.157  24.756  0.00  0.00    +0.000 A 
ATOM     21  C   UNL     1       8.863   3.952  23.348  0.00  0.00    +0.000 A 
ATOM     22  H   UNL     1      12.451   6.479  24.170  0.00  0.00    +0.000 HD
ATOM     23  H   UNL     1      12.451   6.479  24.170  0.00  0.00    +0.000 HD
ENDBRANCH  15  19
BRANCH  14  24
ATOM     24  O   UNL     1      13.926   1.326  23.929  0.00  0.00    +0.000 OA
BRANCH  24  25
ATOM     25  C   UNL     1      14.453   0.445  22.949  0.00  0.00    +0.000 C 
ATOM     26  C   UNL     1      15.878   0.083  23.360  0.00  0.00    +0.000 C 
ATOM     27  C   UNL     1      13.543  -0.776  22.873  0.00  0.00    +0.000 C 
BRANCH  25  29
ATOM     28  O   UNL     1      14.959   2.327  21.488  0.00  0.00    +0.000 OA
ATOM     29  C   UNL     1      14.438   1.228  21.643  0.00  0.00    +0.000 C 
BRANCH  29  30
ATOM     30  O   UNL     1      13.782   0.591  20.641  0.00  0.00    +0.000 OA
ATOM     31  H   UNL     1      19.409   2.683  26.587  0.00  0.00    +0.000 HD
ENDBRANCH  29  30
ENDBRANCH  25  29
ENDBRANCH  24  25
ENDBRANCH  14  24
ENDBRANCH  12  15
ENDBRANCH   5  11
BRANCH   7  33
ATOM     32  OXT UNL     1      13.544   9.615  22.769  0.00  0.00    +0.000 OA
ATOM     33  C   UNL     1      14.725   9.522  23.032  0.00  0.00    +0.000 C 
BRANCH  33  34
ATOM     34  O   UNL     1      15.511  10.498  23.527  0.00  0.00    +0.000 OA
ATOM     35  H   UNL     1      14.023   5.931  24.384  0.00  0.00    +0.000 HD
ENDBRANCH  33  34
ENDBRANCH   7  33
BRANCH   8  36
ATOM     36  C   UNL     1      17.298   9.525  21.524  0.00  0.00    +0.000 C 
BRANCH  36  37
ATOM     37  S   UNL     1      16.975   9.400  19.757  0.00  0.00    +0.000 S 
BRANCH  37  41
ATOM     38  S   UNL     1      20.032   9.333  20.070  0.00  0.00    +0.000 S 
ATOM     39  N   UNL     1      18.824   8.964  17.815  0.00  0.00    +0.000 NA
ATOM     40  C   UNL     1      20.182   8.865  17.582  0.00  0.00    +0.000 A 
ATOM     41  C   UNL     1      18.628   9.209  19.091  0.00  0.00    +0.000 A 
ATOM     42  C   UNL     1      20.996   9.036  18.683  0.00  0.00    +0.000 A 
BRANCH  40  43
ATOM     43  C   UNL     1      20.640   8.591  16.206  0.00  0.00    +0.000 C 
BRANCH  43  44
ATOM     44  N   UNL     1      21.777   7.585  16.109  0.00  0.00    +0.000 N 
ATOM     45  C   UNL     1      21.523   6.277  16.105  0.00  0.00    +0.000 A 
ATOM     46  C   UNL     1      20.179   5.642  16.219  0.00  0.00    +0.000 C 
ATOM     47  C   UNL     1      20.510   4.216  15.748  0.00  0.00    +0.000 C 
ATOM     48  C   UNL     1      21.992   3.959  16.089  0.00  0.00    +0.000 C 
ATOM     49  C   UNL     1      22.546   5.344  16.034  0.00  0.00    +0.000 A 
ATOM     50  C   UNL     1      23.858   5.767  15.967  0.00  0.00    +0.000 A 
ATOM     51  C   UNL     1      23.040   8.039  16.034  0.00  0.00    +0.000 A 
ATOM     52  C   UNL     1      24.107   7.140  15.961  0.00  0.00    +0.000 A 
ENDBRANCH  43  44
ENDBRANCH  40  43
ENDBRANCH  37  41
ENDBRANCH  36  37
ENDBRANCH   8  36
TORSDOF 14
ENDMDL
MODEL 17
REMARK minimizedAffinity -7.08681965
REMARK minimizedRMSD -1
REMARK  Name = 25056706
REMARK  16 active torsions:
REMARK  status: ('A' for Active; 'I' for Inactive)
REMARK    1  A    between atoms: S_2  and  C_25
REMARK    2  A    between atoms: S_2  and  C_39
REMARK    3  A    between atoms: O_6  and  C_31
REMARK    4  A    between atoms: O_9  and  N_16
REMARK    5  A    between atoms: O_9  and  C_43
REMARK    6  A    between atoms: O_10  and  C_47
REMARK    7  A    between atoms: N_13  and  CA_20
REMARK    8  A    between atoms: N_14  and  C_33
REMARK    9  A    between atoms: CA_22  and  C_31
REMARK   10  A    between atoms: C_23  and  C_25
REMARK   11  A    between atoms: C_32  and  C_37
REMARK   12  A    between atoms: C_33  and  C_38
REMARK   13  A    between atoms: C_37  and  C_41
REMARK   14  A    between atoms: C_43  and  C_45
REMARK   15  A    between atoms: C_43  and  C_46
REMARK   16  A    between atoms: C_43  and  C_47
REMARK                            x       y       z     vdW  Elec       q    Type
REMARK                         _______ _______ _______ _____ _____    ______ ____
ROOT
ATOM      1  S   UNL     1      16.145   3.980  22.315  0.00  0.00    +0.000 S 
ATOM      2  O   UNL     1      12.420   4.510  25.050  0.00  0.00    +0.000 OA
ATOM      3  N   UNL     1      14.008   5.111  23.412  0.00  0.00    +0.000 N 
ATOM      4  C   UNL     1      14.346   4.142  22.386  0.00  0.00    +0.000 C 
ATOM      5  CA  UNL     1      13.598   3.106  23.252  0.00  0.00    +0.000 C 
ATOM      6  C   UNL     1      13.156   4.327  24.108  0.00  0.00    +0.000 C 
ATOM      7  CA  UNL     1      14.520   6.368  23.464  0.00  0.00    +0.000 C 
ATOM      8  C   UNL     1      15.602   6.720  22.731  0.00  0.00    +0.000 C 
ATOM      9  C   UNL     1      16.396   5.735  21.877  0.00  0.00    +0.000 C 
ENDROOT
BRANCH   5  11
ATOM     10  O   UNL     1      11.719   1.118  24.349  0.00  0.00    +0.000 OA
ATOM     11  N   UNL     1      12.499   2.431  22.566  0.00  0.00    +0.000 N 
ATOM     12  C   UNL     1      11.678   1.508  23.193  0.00  0.00    +0.000 C 
ATOM     13  H   UNL     1      14.337   1.932  21.362  0.00  0.00    +0.000 HD
BRANCH  12  15
ATOM     14  N   UNL     1       9.526   1.605  22.059  0.00  0.00    +0.000 NA
ATOM     15  C   UNL     1      10.621   0.943  22.282  0.00  0.00    +0.000 C 
BRANCH  15  19
ATOM     16  S   UNL     1      10.558  -2.730  20.738  0.00  0.00    +0.000 S 
ATOM     17  N   UNL     1      12.093  -0.681  21.102  0.00  0.00    +0.000 NA
ATOM     18  N   UNL     1      13.101  -2.507  19.990  0.00  0.00    +0.000 N 
ATOM     19  C   UNL     1      10.857  -0.378  21.640  0.00  0.00    +0.000 A 
ATOM     20  C   UNL     1       9.898  -1.365  21.538  0.00  0.00    +0.000 A 
ATOM     21  C   UNL     1      12.052  -1.895  20.598  0.00  0.00    +0.000 A 
ATOM     22  H   UNL     1      12.788   2.303  19.267  0.00  0.00    +0.000 HD
ATOM     23  H   UNL     1      12.788   2.303  19.267  0.00  0.00    +0.000 HD
ENDBRANCH  15  19
BRANCH  14  24
ATOM     24  O   UNL     1       9.507   2.824  22.750  0.00  0.00    +0.000 OA
BRANCH  24  25
ATOM     25  C   UNL     1       8.183   3.050  23.210  0.00  0.00    +0.000 C 
ATOM     26  C   UNL     1       7.247   2.141  22.418  0.00  0.00    +0.000 C 
ATOM     27  C   UNL     1       8.147   2.758  24.707  0.00  0.00    +0.000 C 
BRANCH  25  29
ATOM     28  O   UNL     1       6.774   5.010  22.891  0.00  0.00    +0.000 OA
ATOM     29  C   UNL     1       7.896   4.519  22.926  0.00  0.00    +0.000 C 
BRANCH  29  30
ATOM     30  O   UNL     1       9.015   5.254  22.708  0.00  0.00    +0.000 OA
ATOM     31  H   UNL     1       2.999   0.541  26.312  0.00  0.00    +0.000 HD
ENDBRANCH  29  30
ENDBRANCH  25  29
ENDBRANCH  24  25
ENDBRANCH  14  24
ENDBRANCH  12  15
ENDBRANCH   5  11
BRANCH   7  33
ATOM     32  OXT UNL     1      13.038   8.119  24.083  0.00  0.00    +0.000 OA
ATOM     33  C   UNL     1      13.885   7.309  24.398  0.00  0.00    +0.000 C 
BRANCH  33  34
ATOM     34  O   UNL     1      14.392   7.122  25.633  0.00  0.00    +0.000 OA
ATOM     35  H   UNL     1      12.199   4.771  21.963  0.00  0.00    +0.000 HD
ENDBRANCH  33  34
ENDBRANCH   7  33
BRANCH   8  36
ATOM     36  C   UNL     1      16.180   8.113  22.671  0.00  0.00    +0.000 C 
BRANCH  36  37
ATOM     37  S   UNL     1      15.377   9.036  21.350  0.00  0.00    +0.000 S 
BRANCH  37  41
ATOM     38  S   UNL     1      16.819  10.662  19.175  0.00  0.00    +0.000 S 
ATOM     39  N   UNL     1      17.711   8.420  20.102  0.00  0.00    +0.000 NA
ATOM     40  C   UNL     1      18.607   8.863  19.148  0.00  0.00    +0.000 A 
ATOM     41  C   UNL     1      16.730   9.289  20.200  0.00  0.00    +0.000 A 
ATOM     42  C   UNL     1      18.292  10.060  18.537  0.00  0.00    +0.000 A 
BRANCH  40  43
ATOM     43  C   UNL     1      19.798   8.039  18.867  0.00  0.00    +0.000 C 
BRANCH  43  44
ATOM     44  N   UNL     1      19.542   6.539  18.873  0.00  0.00    +0.000 N 
ATOM     45  C   UNL     1      19.812   5.813  19.958  0.00  0.00    +0.000 A 
ATOM     46  C   UNL     1      20.394   6.320  21.234  0.00  0.00    +0.000 C 
ATOM     47  C   UNL     1      20.075   5.140  22.167  0.00  0.00    +0.000 C 
ATOM     48  C   UNL     1      20.022   3.871  21.292  0.00  0.00    +0.000 C 
ATOM     49  C   UNL     1      19.601   4.443  19.979  0.00  0.00    +0.000 A 
ATOM     50  C   UNL     1      19.106   3.807  18.858  0.00  0.00    +0.000 A 
ATOM     51  C   UNL     1      19.048   5.961  17.765  0.00  0.00    +0.000 A 
ATOM     52  C   UNL     1      18.819   4.583  17.735  0.00  0.00    +0.000 A 
ENDBRANCH  43  44
ENDBRANCH  40  43
ENDBRANCH  37  41
ENDBRANCH  36  37
ENDBRANCH   8  36
TORSDOF 14
ENDMDL
MODEL 18
REMARK minimizedAffinity -7.00748396
REMARK minimizedRMSD -1
REMARK  Name = 25056706
REMARK  16 active torsions:
REMARK  status: ('A' for Active; 'I' for Inactive)
REMARK    1  A    between atoms: S_2  and  C_25
REMARK    2  A    between atoms: S_2  and  C_39
REMARK    3  A    between atoms: O_6  and  C_31
REMARK    4  A    between atoms: O_9  and  N_16
REMARK    5  A    between atoms: O_9  and  C_43
REMARK    6  A    between atoms: O_10  and  C_47
REMARK    7  A    between atoms: N_13  and  CA_20
REMARK    8  A    between atoms: N_14  and  C_33
REMARK    9  A    between atoms: CA_22  and  C_31
REMARK   10  A    between atoms: C_23  and  C_25
REMARK   11  A    between atoms: C_32  and  C_37
REMARK   12  A    between atoms: C_33  and  C_38
REMARK   13  A    between atoms: C_37  and  C_41
REMARK   14  A    between atoms: C_43  and  C_45
REMARK   15  A    between atoms: C_43  and  C_46
REMARK   16  A    between atoms: C_43  and  C_47
REMARK                            x       y       z     vdW  Elec       q    Type
REMARK                         _______ _______ _______ _____ _____    ______ ____
ROOT
ATOM      1  S   UNL     1      17.337   1.850  22.946  0.00  0.00    +0.000 S 
ATOM      2  O   UNL     1      17.322   3.357  18.546  0.00  0.00    +0.000 OA
ATOM      3  N   UNL     1      16.464   2.321  20.483  0.00  0.00    +0.000 N 
ATOM      4  C   UNL     1      16.612   3.001  21.756  0.00  0.00    +0.000 C 
ATOM      5  CA  UNL     1      17.592   3.946  21.029  0.00  0.00    +0.000 C 
ATOM      6  C   UNL     1      17.127   3.227  19.731  0.00  0.00    +0.000 C 
ATOM      7  CA  UNL     1      15.819   1.135  20.329  0.00  0.00    +0.000 C 
ATOM      8  C   UNL     1      15.515   0.353  21.391  0.00  0.00    +0.000 C 
ATOM      9  C   UNL     1      15.948   0.672  22.820  0.00  0.00    +0.000 C 
ENDROOT
BRANCH   5  11
ATOM     10  O   UNL     1      18.021   5.839  23.248  0.00  0.00    +0.000 OA
ATOM     11  N   UNL     1      17.224   5.358  21.092  0.00  0.00    +0.000 N 
ATOM     12  C   UNL     1      17.480   6.151  22.199  0.00  0.00    +0.000 C 
ATOM     13  H   UNL     1      15.294   4.266  20.692  0.00  0.00    +0.000 HD
BRANCH  12  15
ATOM     14  N   UNL     1      17.815   8.486  21.599  0.00  0.00    +0.000 NA
ATOM     15  C   UNL     1      17.004   7.570  22.032  0.00  0.00    +0.000 C 
BRANCH  15  19
ATOM     16  S   UNL     1      13.495   9.078  23.167  0.00  0.00    +0.000 S 
ATOM     17  N   UNL     1      14.584   6.991  22.097  0.00  0.00    +0.000 NA
ATOM     18  N   UNL     1      12.237   6.878  22.360  0.00  0.00    +0.000 N 
ATOM     19  C   UNL     1      15.592   7.898  22.364  0.00  0.00    +0.000 A 
ATOM     20  C   UNL     1      15.195   9.085  22.944  0.00  0.00    +0.000 A 
ATOM     21  C   UNL     1      13.436   7.507  22.479  0.00  0.00    +0.000 A 
ATOM     22  H   UNL     1      15.413   6.011  18.765  0.00  0.00    +0.000 HD
ATOM     23  H   UNL     1      15.413   6.011  18.765  0.00  0.00    +0.000 HD
ENDBRANCH  15  19
BRANCH  14  24
ATOM     24  O   UNL     1      19.092   7.969  21.337  0.00  0.00    +0.000 OA
BRANCH  24  25
ATOM     25  C   UNL     1      19.652   8.698  20.257  0.00  0.00    +0.000 C 
ATOM     26  C   UNL     1      19.422  10.184  20.521  0.00  0.00    +0.000 C 
ATOM     27  C   UNL     1      21.134   8.348  20.167  0.00  0.00    +0.000 C 
BRANCH  25  29
ATOM     28  O   UNL     1      18.799   7.067  18.662  0.00  0.00    +0.000 OA
ATOM     29  C   UNL     1      18.899   8.236  19.016  0.00  0.00    +0.000 C 
BRANCH  29  30
ATOM     30  O   UNL     1      18.338   9.254  18.316  0.00  0.00    +0.000 OA
ATOM     31  H   UNL     1      20.164   3.599  24.323  0.00  0.00    +0.000 HD
ENDBRANCH  29  30
ENDBRANCH  25  29
ENDBRANCH  24  25
ENDBRANCH  14  24
ENDBRANCH  12  15
ENDBRANCH   5  11
BRANCH   7  33
ATOM     32  OXT UNL     1      14.495   0.963  18.363  0.00  0.00    +0.000 OA
ATOM     33  C   UNL     1      15.526   0.709  18.953  0.00  0.00    +0.000 C 
BRANCH  33  34
ATOM     34  O   UNL     1      16.570   0.008  18.469  0.00  0.00    +0.000 OA
ATOM     35  H   UNL     1      15.398   4.295  20.481  0.00  0.00    +0.000 HD
ENDBRANCH  33  34
ENDBRANCH   7  33
BRANCH   8  36
ATOM     36  C   UNL     1      14.731  -0.934  21.312  0.00  0.00    +0.000 C 
BRANCH  36  37
ATOM     37  S   UNL     1      14.020  -1.300  22.925  0.00  0.00    +0.000 S 
BRANCH  37  41
ATOM     38  S   UNL     1      11.464  -1.420  21.223  0.00  0.00    +0.000 S 
ATOM     39  N   UNL     1      11.571  -0.304  23.552  0.00  0.00    +0.000 NA
ATOM     40  C   UNL     1      10.278  -0.171  23.084  0.00  0.00    +0.000 A 
ATOM     41  C   UNL     1      12.284  -0.947  22.653  0.00  0.00    +0.000 A 
ATOM     42  C   UNL     1      10.029  -0.714  21.840  0.00  0.00    +0.000 A 
BRANCH  40  43
ATOM     43  C   UNL     1       9.293   0.524  23.935  0.00  0.00    +0.000 C 
BRANCH  43  44
ATOM     44  N   UNL     1       8.743   1.812  23.339  0.00  0.00    +0.000 N 
ATOM     45  C   UNL     1       7.549   1.826  22.749  0.00  0.00    +0.000 A 
ATOM     46  C   UNL     1       6.644   0.655  22.566  0.00  0.00    +0.000 C 
ATOM     47  C   UNL     1       5.330   1.377  22.221  0.00  0.00    +0.000 C 
ATOM     48  C   UNL     1       5.710   2.716  21.556  0.00  0.00    +0.000 C 
ATOM     49  C   UNL     1       7.037   2.985  22.185  0.00  0.00    +0.000 A 
ATOM     50  C   UNL     1       7.772   4.152  22.229  0.00  0.00    +0.000 A 
ATOM     51  C   UNL     1       9.486   2.929  23.414  0.00  0.00    +0.000 A 
ATOM     52  C   UNL     1       9.016   4.123  22.860  0.00  0.00    +0.000 A 
ENDBRANCH  43  44
ENDBRANCH  40  43
ENDBRANCH  37  41
ENDBRANCH  36  37
ENDBRANCH   8  36
TORSDOF 14
ENDMDL
MODEL 19
REMARK minimizedAffinity -6.9436903
REMARK minimizedRMSD -1
REMARK  Name = 25056706
REMARK  16 active torsions:
REMARK  status: ('A' for Active; 'I' for Inactive)
REMARK    1  A    between atoms: S_2  and  C_25
REMARK    2  A    between atoms: S_2  and  C_39
REMARK    3  A    between atoms: O_6  and  C_31
REMARK    4  A    between atoms: O_9  and  N_16
REMARK    5  A    between atoms: O_9  and  C_43
REMARK    6  A    between atoms: O_10  and  C_47
REMARK    7  A    between atoms: N_13  and  CA_20
REMARK    8  A    between atoms: N_14  and  C_33
REMARK    9  A    between atoms: CA_22  and  C_31
REMARK   10  A    between atoms: C_23  and  C_25
REMARK   11  A    between atoms: C_32  and  C_37
REMARK   12  A    between atoms: C_33  and  C_38
REMARK   13  A    between atoms: C_37  and  C_41
REMARK   14  A    between atoms: C_43  and  C_45
REMARK   15  A    between atoms: C_43  and  C_46
REMARK   16  A    between atoms: C_43  and  C_47
REMARK                            x       y       z     vdW  Elec       q    Type
REMARK                         _______ _______ _______ _____ _____    ______ ____
ROOT
ATOM      1  S   UNL     1      16.062   2.174  20.515  0.00  0.00    +0.000 S 
ATOM      2  O   UNL     1      14.886   6.529  21.648  0.00  0.00    +0.000 OA
ATOM      3  N   UNL     1      15.481   4.278  22.026  0.00  0.00    +0.000 N 
ATOM      4  C   UNL     1      16.595   3.722  21.281  0.00  0.00    +0.000 C 
ATOM      5  CA  UNL     1      16.515   4.987  20.401  0.00  0.00    +0.000 C 
ATOM      6  C   UNL     1      15.490   5.501  21.452  0.00  0.00    +0.000 C 
ATOM      7  CA  UNL     1      14.781   3.593  22.967  0.00  0.00    +0.000 C 
ATOM      8  C   UNL     1      14.880   2.247  23.079  0.00  0.00    +0.000 C 
ATOM      9  C   UNL     1      15.688   1.381  22.116  0.00  0.00    +0.000 C 
ENDROOT
BRANCH   5  11
ATOM     10  O   UNL     1      18.245   5.493  18.069  0.00  0.00    +0.000 OA
ATOM     11  N   UNL     1      17.753   5.761  20.349  0.00  0.00    +0.000 N 
ATOM     12  C   UNL     1      18.484   5.929  19.184  0.00  0.00    +0.000 C 
ATOM     13  H   UNL     1      18.123   4.169  21.900  0.00  0.00    +0.000 HD
BRANCH  12  15
ATOM     14  N   UNL     1      19.672   8.052  19.258  0.00  0.00    +0.000 NA
ATOM     15  C   UNL     1      19.724   6.761  19.380  0.00  0.00    +0.000 C 
BRANCH  15  19
ATOM     16  S   UNL     1      23.251   5.499  20.737  0.00  0.00    +0.000 S 
ATOM     17  N   UNL     1      21.332   4.879  19.118  0.00  0.00    +0.000 NA
ATOM     18  N   UNL     1      23.120   3.335  19.196  0.00  0.00    +0.000 N 
ATOM     19  C   UNL     1      21.001   6.078  19.719  0.00  0.00    +0.000 A 
ATOM     20  C   UNL     1      21.917   6.571  20.625  0.00  0.00    +0.000 A 
ATOM     21  C   UNL     1      22.497   4.480  19.578  0.00  0.00    +0.000 A 
ATOM     22  H   UNL     1      18.257   3.089  19.424  0.00  0.00    +0.000 HD
ATOM     23  H   UNL     1      18.257   3.089  19.424  0.00  0.00    +0.000 HD
ENDBRANCH  15  19
BRANCH  14  24
ATOM     24  O   UNL     1      18.378   8.493  18.944  0.00  0.00    +0.000 OA
BRANCH  24  25
ATOM     25  C   UNL     1      18.114   9.664  19.702  0.00  0.00    +0.000 C 
ATOM     26  C   UNL     1      17.574   9.232  21.063  0.00  0.00    +0.000 C 
ATOM     27  C   UNL     1      19.413  10.455  19.817  0.00  0.00    +0.000 C 
BRANCH  25  29
ATOM     28  O   UNL     1      17.121  10.644  17.705  0.00  0.00    +0.000 OA
ATOM     29  C   UNL     1      17.065  10.436  18.912  0.00  0.00    +0.000 C 
BRANCH  29  30
ATOM     30  O   UNL     1      16.039  10.887  19.677  0.00  0.00    +0.000 OA
ATOM     31  H   UNL     1      21.449   5.916  15.502  0.00  0.00    +0.000 HD
ENDBRANCH  29  30
ENDBRANCH  25  29
ENDBRANCH  24  25
ENDBRANCH  14  24
ENDBRANCH  12  15
ENDBRANCH   5  11
BRANCH   7  33
ATOM     32  OXT UNL     1      14.181   4.904  24.855  0.00  0.00    +0.000 OA
ATOM     33  C   UNL     1      13.863   4.368  23.813  0.00  0.00    +0.000 C 
BRANCH  33  34
ATOM     34  O   UNL     1      12.639   4.383  23.249  0.00  0.00    +0.000 OA
ATOM     35  H   UNL     1      17.319   5.426  22.347  0.00  0.00    +0.000 HD
ENDBRANCH  33  34
ENDBRANCH   7  33
BRANCH   8  36
ATOM     36  C   UNL     1      14.201   1.423  24.146  0.00  0.00    +0.000 C 
BRANCH  36  37
ATOM     37  S   UNL     1      13.792  -0.198  23.478  0.00  0.00    +0.000 S 
BRANCH  37  41
ATOM     38  S   UNL     1      11.027  -1.235  22.623  0.00  0.00    +0.000 S 
ATOM     39  N   UNL     1      11.368   0.597  24.415  0.00  0.00    +0.000 NA
ATOM     40  C   UNL     1      10.009   0.384  24.289  0.00  0.00    +0.000 A 
ATOM     41  C   UNL     1      12.002  -0.202  23.585  0.00  0.00    +0.000 A 
ATOM     42  C   UNL     1       9.633  -0.571  23.367  0.00  0.00    +0.000 A 
BRANCH  40  43
ATOM     43  C   UNL     1       9.094   1.178  25.131  0.00  0.00    +0.000 C 
BRANCH  43  44
ATOM     44  N   UNL     1       8.522   2.413  24.450  0.00  0.00    +0.000 N 
ATOM     45  C   UNL     1       7.470   3.044  24.970  0.00  0.00    +0.000 A 
ATOM     46  C   UNL     1       6.723   2.645  26.197  0.00  0.00    +0.000 C 
ATOM     47  C   UNL     1       5.943   3.941  26.475  0.00  0.00    +0.000 C 
ATOM     48  C   UNL     1       5.735   4.644  25.118  0.00  0.00    +0.000 C 
ATOM     49  C   UNL     1       6.923   4.161  24.356  0.00  0.00    +0.000 A 
ATOM     50  C   UNL     1       7.471   4.636  23.182  0.00  0.00    +0.000 A 
ATOM     51  C   UNL     1       9.093   2.850  23.314  0.00  0.00    +0.000 A 
ATOM     52  C   UNL     1       8.580   3.971  22.657  0.00  0.00    +0.000 A 
ENDBRANCH  43  44
ENDBRANCH  40  43
ENDBRANCH  37  41
ENDBRANCH  36  37
ENDBRANCH   8  36
TORSDOF 14
ENDMDL
MODEL 20
REMARK minimizedAffinity -6.9213047
REMARK minimizedRMSD -1
REMARK  Name = 25056706
REMARK  16 active torsions:
REMARK  status: ('A' for Active; 'I' for Inactive)
REMARK    1  A    between atoms: S_2  and  C_25
REMARK    2  A    between atoms: S_2  and  C_39
REMARK    3  A    between atoms: O_6  and  C_31
REMARK    4  A    between atoms: O_9  and  N_16
REMARK    5  A    between atoms: O_9  and  C_43
REMARK    6  A    between atoms: O_10  and  C_47
REMARK    7  A    between atoms: N_13  and  CA_20
REMARK    8  A    between atoms: N_14  and  C_33
REMARK    9  A    between atoms: CA_22  and  C_31
REMARK   10  A    between atoms: C_23  and  C_25
REMARK   11  A    between atoms: C_32  and  C_37
REMARK   12  A    between atoms: C_33  and  C_38
REMARK   13  A    between atoms: C_37  and  C_41
REMARK   14  A    between atoms: C_43  and  C_45
REMARK   15  A    between atoms: C_43  and  C_46
REMARK   16  A    between atoms: C_43  and  C_47
REMARK                            x       y       z     vdW  Elec       q    Type
REMARK                         _______ _______ _______ _____ _____    ______ ____
ROOT
ATOM      1  S   UNL     1      21.399   6.085  20.870  0.00  0.00    +0.000 S 
ATOM      2  O   UNL     1      18.144   8.431  18.517  0.00  0.00    +0.000 OA
ATOM      3  N   UNL     1      19.918   6.907  18.825  0.00  0.00    +0.000 N 
ATOM      4  C   UNL     1      19.851   5.983  19.942  0.00  0.00    +0.000 C 
ATOM      5  CA  UNL     1      18.681   6.845  20.462  0.00  0.00    +0.000 C 
ATOM      6  C   UNL     1      18.774   7.574  19.091  0.00  0.00    +0.000 C 
ATOM      7  CA  UNL     1      20.924   6.921  17.914  0.00  0.00    +0.000 C 
ATOM      8  C   UNL     1      22.089   6.268  18.137  0.00  0.00    +0.000 C 
ATOM      9  C   UNL     1      22.415   5.556  19.448  0.00  0.00    +0.000 C 
ENDROOT
BRANCH   5  11
ATOM     10  O   UNL     1      17.250   6.347  22.990  0.00  0.00    +0.000 OA
ATOM     11  N   UNL     1      17.436   6.109  20.662  0.00  0.00    +0.000 N 
ATOM     12  C   UNL     1      16.856   5.941  21.909  0.00  0.00    +0.000 C 
ATOM     13  H   UNL     1      18.828   4.644  19.666  0.00  0.00    +0.000 HD
BRANCH  12  15
ATOM     14  N   UNL     1      14.432   5.733  22.006  0.00  0.00    +0.000 NA
ATOM     15  C   UNL     1      15.580   5.142  21.864  0.00  0.00    +0.000 C 
BRANCH  15  19
ATOM     16  S   UNL     1      16.426   1.255  21.643  0.00  0.00    +0.000 S 
ATOM     17  N   UNL     1      14.649   3.011  20.977  0.00  0.00    +0.000 NA
ATOM     18  N   UNL     1      14.166   0.792  20.320  0.00  0.00    +0.000 N 
ATOM     19  C   UNL     1      15.659   3.673  21.649  0.00  0.00    +0.000 A 
ATOM     20  C   UNL     1      16.706   2.888  22.085  0.00  0.00    +0.000 A 
ATOM     21  C   UNL     1      14.947   1.732  20.915  0.00  0.00    +0.000 A 
ATOM     22  H   UNL     1      11.759   4.394  22.555  0.00  0.00    +0.000 HD
ATOM     23  H   UNL     1      11.759   4.394  22.555  0.00  0.00    +0.000 HD
ENDBRANCH  15  19
BRANCH  14  24
ATOM     24  O   UNL     1      14.578   7.115  22.189  0.00  0.00    +0.000 OA
BRANCH  24  25
ATOM     25  C   UNL     1      13.489   7.575  22.972  0.00  0.00    +0.000 C 
ATOM     26  C   UNL     1      12.198   7.099  22.311  0.00  0.00    +0.000 C 
ATOM     27  C   UNL     1      13.655   7.023  24.384  0.00  0.00    +0.000 C 
BRANCH  25  29
ATOM     28  O   UNL     1      14.582   9.728  23.292  0.00  0.00    +0.000 OA
ATOM     29  C   UNL     1      13.587   9.095  22.959  0.00  0.00    +0.000 C 
BRANCH  29  30
ATOM     30  O   UNL     1      12.449   9.704  22.539  0.00  0.00    +0.000 OA
ATOM     31  H   UNL     1      19.566   5.159  22.829  0.00  0.00    +0.000 HD
ENDBRANCH  29  30
ENDBRANCH  25  29
ENDBRANCH  24  25
ENDBRANCH  14  24
ENDBRANCH  12  15
ENDBRANCH   5  11
BRANCH   7  33
ATOM     32  OXT UNL     1      20.870   8.933  16.651  0.00  0.00    +0.000 OA
ATOM     33  C   UNL     1      20.718   7.730  16.704  0.00  0.00    +0.000 C 
BRANCH  33  34
ATOM     34  O   UNL     1      20.341   6.928  15.688  0.00  0.00    +0.000 OA
ATOM     35  H   UNL     1      23.852   7.550  19.018  0.00  0.00    +0.000 HD
ENDBRANCH  33  34
ENDBRANCH   7  33
BRANCH   8  36
ATOM     36  C   UNL     1      23.220   6.167  17.143  0.00  0.00    +0.000 C 
BRANCH  36  37
ATOM     37  S   UNL     1      23.994   7.782  16.954  0.00  0.00    +0.000 S 
BRANCH  37  41
ATOM     38  S   UNL     1      23.303   9.281  19.547  0.00  0.00    +0.000 S 
ATOM     39  N   UNL     1      25.385   7.771  19.287  0.00  0.00    +0.000 NA
ATOM     40  C   UNL     1      25.394   8.277  20.573  0.00  0.00    +0.000 A 
ATOM     41  C   UNL     1      24.329   8.233  18.656  0.00  0.00    +0.000 A 
ATOM     42  C   UNL     1      24.346   9.114  20.897  0.00  0.00    +0.000 A 
BRANCH  40  43
ATOM     43  C   UNL     1      26.499   7.889  21.472  0.00  0.00    +0.000 C 
BRANCH  43  44
ATOM     44  N   UNL     1      26.452   8.542  22.845  0.00  0.00    +0.000 N 
ATOM     45  C   UNL     1      26.080   7.839  23.914  0.00  0.00    +0.000 A 
ATOM     46  C   UNL     1      25.651   6.411  23.922  0.00  0.00    +0.000 C 
ATOM     47  C   UNL     1      25.761   6.102  25.425  0.00  0.00    +0.000 C 
ATOM     48  C   UNL     1      25.532   7.428  26.178  0.00  0.00    +0.000 C 
ATOM     49  C   UNL     1      26.015   8.419  25.172  0.00  0.00    +0.000 A 
ATOM     50  C   UNL     1      26.338   9.751  25.331  0.00  0.00    +0.000 A 
ATOM     51  C   UNL     1      26.786   9.839  22.958  0.00  0.00    +0.000 A 
ATOM     52  C   UNL     1      26.736  10.471  24.204  0.00  0.00    +0.000 A 
ENDBRANCH  43  44
ENDBRANCH  40  43
ENDBRANCH  37  41
ENDBRANCH  36  37
ENDBRANCH   8  36
TORSDOF 14
ENDMDL
