MODEL 1
REMARK minimizedAffinity -8.12536526
REMARK minimizedRMSD -1
REMARK  Name = 145948210
REMARK  14 active torsions:
REMARK  status: ('A' for Active; 'I' for Inactive)
REMARK    1  A    between atoms: S_2  and  C_25
REMARK    2  A    between atoms: S_2  and  C_29
REMARK    3  A    between atoms: O_8  and  N_14
REMARK    4  A    between atoms: O_8  and  C_38
REMARK    5  A    between atoms: O_9  and  C_39
REMARK    6  A    between atoms: O_10  and  C_44
REMARK    7  A    between atoms: N_13  and  CA_20
REMARK    8  A    between atoms: N_15  and  C_36
REMARK    9  A    between atoms: CA_22  and  C_26
REMARK   10  A    between atoms: C_23  and  C_25
REMARK   11  A    between atoms: C_27  and  C_28
REMARK   12  A    between atoms: C_28  and  C_30
REMARK   13  A    between atoms: C_36  and  C_39
REMARK   14  A    between atoms: C_38  and  C_40
REMARK                            x       y       z     vdW  Elec       q    Type
REMARK                         _______ _______ _______ _____ _____    ______ ____
ROOT
ATOM      1  O   UNL     1      17.645   5.412  23.577  0.00  0.00    +0.000 OA
ATOM      2  N   UNL     1      16.675   6.725  21.890  0.00  0.00    +0.000 N 
ATOM      3  C   UNL     1      16.867   5.582  22.652  0.00  0.00    +0.000 C 
ATOM      4  H   UNL     1      14.538   9.570  22.686  0.00  0.00    +0.000 HD
ENDROOT
BRANCH   2   9
ATOM      5  S   UNL     1      19.478   6.667  20.518  0.00  0.00    +0.000 S 
ATOM      6  O   UNL     1      16.043   9.784  20.941  0.00  0.00    +0.000 OA
ATOM      7  N   UNL     1      18.228   9.010  20.532  0.00  0.00    +0.000 N 
ATOM      8  C   UNL     1      18.830   8.070  21.459  0.00  0.00    +0.000 C 
ATOM      9  CA  UNL     1      17.426   7.955  22.105  0.00  0.00    +0.000 C 
ATOM     10  C   UNL     1      17.028   9.112  21.140  0.00  0.00    +0.000 C 
ATOM     11  CA  UNL     1      18.846   9.508  19.429  0.00  0.00    +0.000 C 
ATOM     12  C   UNL     1      19.989   8.959  18.958  0.00  0.00    +0.000 C 
ATOM     13  C   UNL     1      20.623   7.701  19.543  0.00  0.00    +0.000 C 
BRANCH  11  16
ATOM     14  O   UNL     1      17.486  10.320  17.698  0.00  0.00    +0.000 OA
ATOM     15  OXT UNL     1      18.446  11.804  19.151  0.00  0.00    +0.000 OA
ATOM     16  C   UNL     1      18.192  10.664  18.682  0.00  0.00    +0.000 C 
ENDBRANCH  11  16
BRANCH  12  17
ATOM     17  C   UNL     1      20.776   9.505  17.792  0.00  0.00    +0.000 C 
BRANCH  17  18
ATOM     18  S   UNL     1      21.390   8.139  16.792  0.00  0.00    +0.000 S 
BRANCH  18  20
ATOM     19  N   UNL     1      25.866   8.560  17.282  0.00  0.00    +0.000 N 
ATOM     20  C   UNL     1      23.164   8.306  16.987  0.00  0.00    +0.000 A 
ATOM     21  C   UNL     1      24.024   7.725  16.059  0.00  0.00    +0.000 A 
ATOM     22  C   UNL     1      23.683   9.018  18.064  0.00  0.00    +0.000 A 
ATOM     23  C   UNL     1      25.392   7.870  16.235  0.00  0.00    +0.000 A 
ATOM     24  C   UNL     1      25.060   9.130  18.189  0.00  0.00    +0.000 A 
BRANCH  19  25
ATOM     25  C   UNL     1      27.311   8.696  17.438  0.00  0.00    +0.000 C 
BRANCH  25  26
ATOM     26  C   UNL     1      27.962   9.381  16.243  0.00  0.00    +0.000 C 
BRANCH  26  27
ATOM     27  O   UNL     1      28.675  10.532  16.678  0.00  0.00    +0.000 OA
ATOM     28  H   UNL     1      24.083  16.604  21.755  0.00  0.00    +0.000 HD
ENDBRANCH  26  27
ENDBRANCH  25  26
ENDBRANCH  19  25
ENDBRANCH  18  20
ENDBRANCH  17  18
ENDBRANCH  12  17
ENDBRANCH   2   9
BRANCH   3  30
ATOM     29  N   UNL     1      15.047   4.013  23.037  0.00  0.00    +0.000 NA
ATOM     30  C   UNL     1      15.980   4.437  22.240  0.00  0.00    +0.000 C 
BRANCH  30  34
ATOM     31  S   UNL     1      15.808   2.786  18.619  0.00  0.00    +0.000 S 
ATOM     32  N   UNL     1      17.463   3.520  20.464  0.00  0.00    +0.000 NA
ATOM     33  N   UNL     1      18.459   2.573  18.541  0.00  0.00    +0.000 N 
ATOM     34  C   UNL     1      16.188   3.811  20.907  0.00  0.00    +0.000 A 
ATOM     35  C   UNL     1      15.161   3.485  20.044  0.00  0.00    +0.000 A 
ATOM     36  C   UNL     1      17.385   2.978  19.270  0.00  0.00    +0.000 A 
ATOM     37  H   UNL     1      14.391   5.399  27.258  0.00  0.00    +0.000 HD
ATOM     38  H   UNL     1      14.391   5.399  27.258  0.00  0.00    +0.000 HD
ENDBRANCH  30  34
BRANCH  29  39
ATOM     39  O   UNL     1      15.015   4.740  24.235  0.00  0.00    +0.000 OA
BRANCH  39  40
ATOM     40  C   UNL     1      13.674   5.141  24.472  0.00  0.00    +0.000 C 
BRANCH  40  43
ATOM     41  O   UNL     1      14.106   9.851  23.430  0.00  0.00    +0.000 OA
ATOM     42  N   UNL     1      12.469   6.271  22.673  0.00  0.00    +0.000 N 
ATOM     43  C   UNL     1      13.372   6.378  23.709  0.00  0.00    +0.000 A 
ATOM     44  C   UNL     1      13.953   7.556  24.008  0.00  0.00    +0.000 A 
ATOM     45  C   UNL     1      13.602   8.759  23.193  0.00  0.00    +0.000 A 
ATOM     46  C   UNL     1      12.117   7.344  21.903  0.00  0.00    +0.000 A 
ATOM     47  C   UNL     1      12.615   8.576  22.085  0.00  0.00    +0.000 A 
ATOM     48  H   UNL     1      13.559   6.026  20.535  0.00  0.00    +0.000 HD
BRANCH  47  49
ATOM     49  O   UNL     1      12.254   9.647  21.305  0.00  0.00    +0.000 OA
ATOM     50  H   UNL     1      13.559   6.026  20.535  0.00  0.00    +0.000 HD
ENDBRANCH  47  49
ENDBRANCH  40  43
ENDBRANCH  39  40
ENDBRANCH  29  39
ENDBRANCH   3  30
TORSDOF 14
ENDMDL
MODEL 2
REMARK minimizedAffinity -7.82272577
REMARK minimizedRMSD -1
REMARK  Name = 145948210
REMARK  14 active torsions:
REMARK  status: ('A' for Active; 'I' for Inactive)
REMARK    1  A    between atoms: S_2  and  C_25
REMARK    2  A    between atoms: S_2  and  C_29
REMARK    3  A    between atoms: O_8  and  N_14
REMARK    4  A    between atoms: O_8  and  C_38
REMARK    5  A    between atoms: O_9  and  C_39
REMARK    6  A    between atoms: O_10  and  C_44
REMARK    7  A    between atoms: N_13  and  CA_20
REMARK    8  A    between atoms: N_15  and  C_36
REMARK    9  A    between atoms: CA_22  and  C_26
REMARK   10  A    between atoms: C_23  and  C_25
REMARK   11  A    between atoms: C_27  and  C_28
REMARK   12  A    between atoms: C_28  and  C_30
REMARK   13  A    between atoms: C_36  and  C_39
REMARK   14  A    between atoms: C_38  and  C_40
REMARK                            x       y       z     vdW  Elec       q    Type
REMARK                         _______ _______ _______ _____ _____    ______ ____
ROOT
ATOM      1  O   UNL     1      18.381   4.994  19.063  0.00  0.00    +0.000 OA
ATOM      2  N   UNL     1      17.941   6.277  20.980  0.00  0.00    +0.000 N 
ATOM      3  C   UNL     1      18.650   5.385  20.188  0.00  0.00    +0.000 C 
ATOM      4  H   UNL     1      18.146   9.917  20.920  0.00  0.00    +0.000 HD
ENDROOT
BRANCH   2   9
ATOM      5  S   UNL     1      15.495   4.349  21.170  0.00  0.00    +0.000 S 
ATOM      6  O   UNL     1      16.306   8.810  22.230  0.00  0.00    +0.000 OA
ATOM      7  N   UNL     1      15.023   6.900  21.738  0.00  0.00    +0.000 N 
ATOM      8  C   UNL     1      15.400   6.067  20.611  0.00  0.00    +0.000 C 
ATOM      9  CA  UNL     1      16.701   6.907  20.547  0.00  0.00    +0.000 C 
ATOM     10  C   UNL     1      16.031   7.792  21.641  0.00  0.00    +0.000 C 
ATOM     11  CA  UNL     1      13.951   6.671  22.539  0.00  0.00    +0.000 C 
ATOM     12  C   UNL     1      13.294   5.489  22.513  0.00  0.00    +0.000 C 
ATOM     13  C   UNL     1      13.742   4.296  21.676  0.00  0.00    +0.000 C 
BRANCH  11  16
ATOM     14  O   UNL     1      14.039   7.636  24.677  0.00  0.00    +0.000 OA
ATOM     15  OXT UNL     1      12.741   8.613  23.065  0.00  0.00    +0.000 OA
ATOM     16  C   UNL     1      13.534   7.752  23.529  0.00  0.00    +0.000 C 
ENDBRANCH  11  16
BRANCH  12  17
ATOM     17  C   UNL     1      12.048   5.191  23.311  0.00  0.00    +0.000 C 
BRANCH  17  18
ATOM     18  S   UNL     1      11.477   3.527  22.930  0.00  0.00    +0.000 S 
BRANCH  18  20
ATOM     19  N   UNL     1       7.104   3.758  24.057  0.00  0.00    +0.000 N 
ATOM     20  C   UNL     1       9.745   3.618  23.378  0.00  0.00    +0.000 A 
ATOM     21  C   UNL     1       8.942   4.627  22.851  0.00  0.00    +0.000 A 
ATOM     22  C   UNL     1       9.199   2.681  24.249  0.00  0.00    +0.000 A 
ATOM     23  C   UNL     1       7.604   4.673  23.215  0.00  0.00    +0.000 A 
ATOM     24  C   UNL     1       7.855   2.778  24.578  0.00  0.00    +0.000 A 
BRANCH  19  25
ATOM     25  C   UNL     1       5.692   3.834  24.420  0.00  0.00    +0.000 C 
BRANCH  25  26
ATOM     26  C   UNL     1       5.477   3.766  25.928  0.00  0.00    +0.000 C 
BRANCH  26  27
ATOM     27  O   UNL     1       5.768   5.029  26.512  0.00  0.00    +0.000 OA
ATOM     28  H   UNL     1      13.914   8.731  24.591  0.00  0.00    +0.000 HD
ENDBRANCH  26  27
ENDBRANCH  25  26
ENDBRANCH  19  25
ENDBRANCH  18  20
ENDBRANCH  17  18
ENDBRANCH  12  17
ENDBRANCH   2   9
BRANCH   3  30
ATOM     29  N   UNL     1      21.066   5.254  20.447  0.00  0.00    +0.000 NA
ATOM     30  C   UNL     1      19.896   4.861  20.851  0.00  0.00    +0.000 C 
BRANCH  30  34
ATOM     31  S   UNL     1      19.108   1.907  23.404  0.00  0.00    +0.000 S 
ATOM     32  N   UNL     1      20.406   4.130  23.175  0.00  0.00    +0.000 NA
ATOM     33  N   UNL     1      20.612   3.058  25.272  0.00  0.00    +0.000 N 
ATOM     34  C   UNL     1      19.761   3.898  21.976  0.00  0.00    +0.000 A 
ATOM     35  C   UNL     1      19.010   2.742  21.910  0.00  0.00    +0.000 A 
ATOM     36  C   UNL     1      20.135   3.145  24.002  0.00  0.00    +0.000 A 
ATOM     37  H   UNL     1      18.835   8.380  16.963  0.00  0.00    +0.000 HD
ATOM     38  H   UNL     1      18.835   8.380  16.963  0.00  0.00    +0.000 HD
ENDBRANCH  30  34
BRANCH  29  39
ATOM     39  O   UNL     1      20.972   6.164  19.385  0.00  0.00    +0.000 OA
BRANCH  39  40
ATOM     40  C   UNL     1      21.459   7.418  19.835  0.00  0.00    +0.000 C 
BRANCH  40  43
ATOM     41  O   UNL     1      18.792  10.111  16.819  0.00  0.00    +0.000 OA
ATOM     42  N   UNL     1      19.960   9.211  20.547  0.00  0.00    +0.000 N 
ATOM     43  C   UNL     1      20.487   8.490  19.497  0.00  0.00    +0.000 A 
ATOM     44  C   UNL     1      20.131   8.749  18.225  0.00  0.00    +0.000 A 
ATOM     45  C   UNL     1      19.144   9.841  17.961  0.00  0.00    +0.000 A 
ATOM     46  C   UNL     1      19.056  10.219  20.354  0.00  0.00    +0.000 A 
ATOM     47  C   UNL     1      18.611  10.586  19.144  0.00  0.00    +0.000 A 
ATOM     48  H   UNL     1      17.793   8.390  21.218  0.00  0.00    +0.000 HD
BRANCH  47  49
ATOM     49  O   UNL     1      17.703  11.600  18.961  0.00  0.00    +0.000 OA
ATOM     50  H   UNL     1      17.793   8.390  21.218  0.00  0.00    +0.000 HD
ENDBRANCH  47  49
ENDBRANCH  40  43
ENDBRANCH  39  40
ENDBRANCH  29  39
ENDBRANCH   3  30
TORSDOF 14
ENDMDL
MODEL 3
REMARK minimizedAffinity -7.8113966
REMARK minimizedRMSD -1
REMARK  Name = 145948210
REMARK  14 active torsions:
REMARK  status: ('A' for Active; 'I' for Inactive)
REMARK    1  A    between atoms: S_2  and  C_25
REMARK    2  A    between atoms: S_2  and  C_29
REMARK    3  A    between atoms: O_8  and  N_14
REMARK    4  A    between atoms: O_8  and  C_38
REMARK    5  A    between atoms: O_9  and  C_39
REMARK    6  A    between atoms: O_10  and  C_44
REMARK    7  A    between atoms: N_13  and  CA_20
REMARK    8  A    between atoms: N_15  and  C_36
REMARK    9  A    between atoms: CA_22  and  C_26
REMARK   10  A    between atoms: C_23  and  C_25
REMARK   11  A    between atoms: C_27  and  C_28
REMARK   12  A    between atoms: C_28  and  C_30
REMARK   13  A    between atoms: C_36  and  C_39
REMARK   14  A    between atoms: C_38  and  C_40
REMARK                            x       y       z     vdW  Elec       q    Type
REMARK                         _______ _______ _______ _____ _____    ______ ____
ROOT
ATOM      1  O   UNL     1      21.414   7.783  16.840  0.00  0.00    +0.000 OA
ATOM      2  N   UNL     1      21.780   6.216  18.550  0.00  0.00    +0.000 N 
ATOM      3  C   UNL     1      21.955   7.412  17.869  0.00  0.00    +0.000 C 
ATOM      4  H   UNL     1      19.193   5.435  20.999  0.00  0.00    +0.000 HD
ENDROOT
BRANCH   2   9
ATOM      5  S   UNL     1      21.192   4.098  20.766  0.00  0.00    +0.000 S 
ATOM      6  O   UNL     1      18.660   6.401  17.607  0.00  0.00    +0.000 OA
ATOM      7  N   UNL     1      19.167   4.704  19.158  0.00  0.00    +0.000 N 
ATOM      8  C   UNL     1      20.470   4.067  19.107  0.00  0.00    +0.000 C 
ATOM      9  CA  UNL     1      20.866   5.175  18.097  0.00  0.00    +0.000 C 
ATOM     10  C   UNL     1      19.365   5.587  18.156  0.00  0.00    +0.000 C 
ATOM     11  CA  UNL     1      18.185   4.378  20.037  0.00  0.00    +0.000 C 
ATOM     12  C   UNL     1      18.438   3.606  21.118  0.00  0.00    +0.000 C 
ATOM     13  C   UNL     1      19.834   3.124  21.500  0.00  0.00    +0.000 C 
BRANCH  11  16
ATOM     14  O   UNL     1      16.649   6.145  20.209  0.00  0.00    +0.000 OA
ATOM     15  OXT UNL     1      15.970   4.164  19.289  0.00  0.00    +0.000 OA
ATOM     16  C   UNL     1      16.791   4.955  19.823  0.00  0.00    +0.000 C 
ENDBRANCH  11  16
BRANCH  12  17
ATOM     17  C   UNL     1      17.385   3.135  22.092  0.00  0.00    +0.000 C 
BRANCH  17  18
ATOM     18  S   UNL     1      17.420   4.176  23.560  0.00  0.00    +0.000 S 
BRANCH  18  20
ATOM     19  N   UNL     1      13.667   6.645  23.044  0.00  0.00    +0.000 N 
ATOM     20  C   UNL     1      15.932   5.154  23.356  0.00  0.00    +0.000 A 
ATOM     21  C   UNL     1      15.977   6.535  23.530  0.00  0.00    +0.000 A 
ATOM     22  C   UNL     1      14.732   4.536  23.022  0.00  0.00    +0.000 A 
ATOM     23  C   UNL     1      14.811   7.267  23.366  0.00  0.00    +0.000 A 
ATOM     24  C   UNL     1      13.596   5.318  22.871  0.00  0.00    +0.000 A 
BRANCH  19  25
ATOM     25  C   UNL     1      12.456   7.444  22.878  0.00  0.00    +0.000 C 
BRANCH  25  26
ATOM     26  C   UNL     1      12.648   8.590  21.892  0.00  0.00    +0.000 C 
BRANCH  26  27
ATOM     27  O   UNL     1      12.470   9.833  22.559  0.00  0.00    +0.000 OA
ATOM     28  H   UNL     1       4.724  10.940  27.305  0.00  0.00    +0.000 HD
ENDBRANCH  26  27
ENDBRANCH  25  26
ENDBRANCH  19  25
ENDBRANCH  18  20
ENDBRANCH  17  18
ENDBRANCH  12  17
ENDBRANCH   2   9
BRANCH   3  30
ATOM     29  N   UNL     1      22.629   8.992  19.593  0.00  0.00    +0.000 NA
ATOM     30  C   UNL     1      22.954   8.328  18.526  0.00  0.00    +0.000 C 
BRANCH  30  34
ATOM     31  S   UNL     1      26.790   8.184  17.465  0.00  0.00    +0.000 S 
ATOM     32  N   UNL     1      24.530   9.274  16.848  0.00  0.00    +0.000 NA
ATOM     33  N   UNL     1      26.353   9.900  15.480  0.00  0.00    +0.000 N 
ATOM     34  C   UNL     1      24.313   8.451  17.935  0.00  0.00    +0.000 A 
ATOM     35  C   UNL     1      25.420   7.776  18.410  0.00  0.00    +0.000 A 
ATOM     36  C   UNL     1      25.799   9.212  16.513  0.00  0.00    +0.000 A 
ATOM     37  H   UNL     1      18.815   8.394  21.917  0.00  0.00    +0.000 HD
ATOM     38  H   UNL     1      18.815   8.394  21.917  0.00  0.00    +0.000 HD
ENDBRANCH  30  34
BRANCH  29  39
ATOM     39  O   UNL     1      21.310   8.729  19.989  0.00  0.00    +0.000 OA
BRANCH  39  40
ATOM     40  C   UNL     1      20.747   9.936  20.479  0.00  0.00    +0.000 C 
BRANCH  40  43
ATOM     41  O   UNL     1      16.863  10.950  17.770  0.00  0.00    +0.000 OA
ATOM     42  N   UNL     1      18.444   9.454  21.137  0.00  0.00    +0.000 N 
ATOM     43  C   UNL     1      19.292   9.974  20.182  0.00  0.00    +0.000 A 
ATOM     44  C   UNL     1      18.817  10.490  19.033  0.00  0.00    +0.000 A 
ATOM     45  C   UNL     1      17.339  10.491  18.802  0.00  0.00    +0.000 A 
ATOM     46  C   UNL     1      17.087   9.436  20.969  0.00  0.00    +0.000 A 
ATOM     47  C   UNL     1      16.474   9.914  19.876  0.00  0.00    +0.000 A 
ATOM     48  H   UNL     1      17.798   7.183  20.641  0.00  0.00    +0.000 HD
BRANCH  47  49
ATOM     49  O   UNL     1      15.110   9.891  19.718  0.00  0.00    +0.000 OA
ATOM     50  H   UNL     1      17.798   7.183  20.641  0.00  0.00    +0.000 HD
ENDBRANCH  47  49
ENDBRANCH  40  43
ENDBRANCH  39  40
ENDBRANCH  29  39
ENDBRANCH   3  30
TORSDOF 14
ENDMDL
MODEL 4
REMARK minimizedAffinity -7.57179117
REMARK minimizedRMSD -1
REMARK  Name = 145948210
REMARK  14 active torsions:
REMARK  status: ('A' for Active; 'I' for Inactive)
REMARK    1  A    between atoms: S_2  and  C_25
REMARK    2  A    between atoms: S_2  and  C_29
REMARK    3  A    between atoms: O_8  and  N_14
REMARK    4  A    between atoms: O_8  and  C_38
REMARK    5  A    between atoms: O_9  and  C_39
REMARK    6  A    between atoms: O_10  and  C_44
REMARK    7  A    between atoms: N_13  and  CA_20
REMARK    8  A    between atoms: N_15  and  C_36
REMARK    9  A    between atoms: CA_22  and  C_26
REMARK   10  A    between atoms: C_23  and  C_25
REMARK   11  A    between atoms: C_27  and  C_28
REMARK   12  A    between atoms: C_28  and  C_30
REMARK   13  A    between atoms: C_36  and  C_39
REMARK   14  A    between atoms: C_38  and  C_40
REMARK                            x       y       z     vdW  Elec       q    Type
REMARK                         _______ _______ _______ _____ _____    ______ ____
ROOT
ATOM      1  O   UNL     1      17.769   5.460  23.748  0.00  0.00    +0.000 OA
ATOM      2  N   UNL     1      16.840   6.615  21.927  0.00  0.00    +0.000 N 
ATOM      3  C   UNL     1      17.031   5.537  22.779  0.00  0.00    +0.000 C 
ATOM      4  H   UNL     1      14.579   9.434  22.415  0.00  0.00    +0.000 HD
ENDROOT
BRANCH   2   9
ATOM      5  S   UNL     1      19.790   6.480  20.918  0.00  0.00    +0.000 S 
ATOM      6  O   UNL     1      16.285   9.526  20.557  0.00  0.00    +0.000 OA
ATOM      7  N   UNL     1      18.515   8.773  20.507  0.00  0.00    +0.000 N 
ATOM      8  C   UNL     1      19.013   7.963  21.603  0.00  0.00    +0.000 C 
ATOM      9  CA  UNL     1      17.541   7.882  22.085  0.00  0.00    +0.000 C 
ATOM     10  C   UNL     1      17.248   8.909  20.950  0.00  0.00    +0.000 C 
ATOM     11  CA  UNL     1      19.257   9.158  19.437  0.00  0.00    +0.000 C 
ATOM     12  C   UNL     1      20.457   8.592  19.174  0.00  0.00    +0.000 C 
ATOM     13  C   UNL     1      21.032   7.428  19.974  0.00  0.00    +0.000 C 
BRANCH  11  16
ATOM     14  O   UNL     1      18.286   9.745  17.382  0.00  0.00    +0.000 OA
ATOM     15  OXT UNL     1      18.683  11.378  18.934  0.00  0.00    +0.000 OA
ATOM     16  C   UNL     1      18.683  10.202  18.486  0.00  0.00    +0.000 C 
ENDBRANCH  11  16
BRANCH  12  17
ATOM     17  C   UNL     1      21.373   9.023  18.054  0.00  0.00    +0.000 C 
BRANCH  17  18
ATOM     18  S   UNL     1      22.796   7.922  17.989  0.00  0.00    +0.000 S 
BRANCH  18  20
ATOM     19  N   UNL     1      21.137   4.383  15.715  0.00  0.00    +0.000 N 
ATOM     20  C   UNL     1      22.138   6.520  17.087  0.00  0.00    +0.000 A 
ATOM     21  C   UNL     1      22.773   5.283  17.164  0.00  0.00    +0.000 A 
ATOM     22  C   UNL     1      20.993   6.666  16.311  0.00  0.00    +0.000 A 
ATOM     23  C   UNL     1      22.241   4.216  16.456  0.00  0.00    +0.000 A 
ATOM     24  C   UNL     1      20.507   5.562  15.624  0.00  0.00    +0.000 A 
BRANCH  19  25
ATOM     25  C   UNL     1      20.602   3.240  14.982  0.00  0.00    +0.000 C 
BRANCH  25  26
ATOM     26  C   UNL     1      21.431   2.904  13.747  0.00  0.00    +0.000 C 
BRANCH  26  27
ATOM     27  O   UNL     1      21.942   1.582  13.856  0.00  0.00    +0.000 OA
ATOM     28  H   UNL     1      26.554  -0.485  21.485  0.00  0.00    +0.000 HD
ENDBRANCH  26  27
ENDBRANCH  25  26
ENDBRANCH  19  25
ENDBRANCH  18  20
ENDBRANCH  17  18
ENDBRANCH  12  17
ENDBRANCH   2   9
BRANCH   3  30
ATOM     29  N   UNL     1      15.236   3.945  23.188  0.00  0.00    +0.000 NA
ATOM     30  C   UNL     1      16.201   4.335  22.412  0.00  0.00    +0.000 C 
BRANCH  30  34
ATOM     31  S   UNL     1      17.624   2.203  19.363  0.00  0.00    +0.000 S 
ATOM     32  N   UNL     1      15.610   3.650  20.093  0.00  0.00    +0.000 NA
ATOM     33  N   UNL     1      15.471   2.766  17.905  0.00  0.00    +0.000 N 
ATOM     34  C   UNL     1      16.502   3.613  21.147  0.00  0.00    +0.000 A 
ATOM     35  C   UNL     1      17.651   2.877  20.939  0.00  0.00    +0.000 A 
ATOM     36  C   UNL     1      16.097   2.942  19.099  0.00  0.00    +0.000 A 
ATOM     37  H   UNL     1      16.457   7.643  26.609  0.00  0.00    +0.000 HD
ATOM     38  H   UNL     1      16.457   7.643  26.609  0.00  0.00    +0.000 HD
ENDBRANCH  30  34
BRANCH  29  39
ATOM     39  O   UNL     1      15.115   4.763  24.320  0.00  0.00    +0.000 OA
BRANCH  39  40
ATOM     40  C   UNL     1      13.746   5.101  24.477  0.00  0.00    +0.000 C 
BRANCH  40  43
ATOM     41  O   UNL     1      14.338   9.760  23.294  0.00  0.00    +0.000 OA
ATOM     42  N   UNL     1      12.432   6.270  22.781  0.00  0.00    +0.000 N 
ATOM     43  C   UNL     1      13.440   6.341  23.720  0.00  0.00    +0.000 A 
ATOM     44  C   UNL     1      14.113   7.487  23.934  0.00  0.00    +0.000 A 
ATOM     45  C   UNL     1      13.751   8.696  23.132  0.00  0.00    +0.000 A 
ATOM     46  C   UNL     1      12.067   7.349  22.025  0.00  0.00    +0.000 A 
ATOM     47  C   UNL     1      12.649   8.552  22.130  0.00  0.00    +0.000 A 
ATOM     48  H   UNL     1      13.289   5.927  20.552  0.00  0.00    +0.000 HD
BRANCH  47  49
ATOM     49  O   UNL     1      12.274   9.630  21.366  0.00  0.00    +0.000 OA
ATOM     50  H   UNL     1      13.289   5.927  20.552  0.00  0.00    +0.000 HD
ENDBRANCH  47  49
ENDBRANCH  40  43
ENDBRANCH  39  40
ENDBRANCH  29  39
ENDBRANCH   3  30
TORSDOF 14
ENDMDL
MODEL 5
REMARK minimizedAffinity -7.41018629
REMARK minimizedRMSD -1
REMARK  Name = 145948210
REMARK  14 active torsions:
REMARK  status: ('A' for Active; 'I' for Inactive)
REMARK    1  A    between atoms: S_2  and  C_25
REMARK    2  A    between atoms: S_2  and  C_29
REMARK    3  A    between atoms: O_8  and  N_14
REMARK    4  A    between atoms: O_8  and  C_38
REMARK    5  A    between atoms: O_9  and  C_39
REMARK    6  A    between atoms: O_10  and  C_44
REMARK    7  A    between atoms: N_13  and  CA_20
REMARK    8  A    between atoms: N_15  and  C_36
REMARK    9  A    between atoms: CA_22  and  C_26
REMARK   10  A    between atoms: C_23  and  C_25
REMARK   11  A    between atoms: C_27  and  C_28
REMARK   12  A    between atoms: C_28  and  C_30
REMARK   13  A    between atoms: C_36  and  C_39
REMARK   14  A    between atoms: C_38  and  C_40
REMARK                            x       y       z     vdW  Elec       q    Type
REMARK                         _______ _______ _______ _____ _____    ______ ____
ROOT
ATOM      1  O   UNL     1      12.562   4.230  25.294  0.00  0.00    +0.000 OA
ATOM      2  N   UNL     1      12.678   5.782  23.536  0.00  0.00    +0.000 N 
ATOM      3  C   UNL     1      12.304   4.601  24.160  0.00  0.00    +0.000 C 
ATOM      4  H   UNL     1      10.989   9.007  23.731  0.00  0.00    +0.000 HD
ENDROOT
BRANCH   2   9
ATOM      5  S   UNL     1      15.741   5.292  23.190  0.00  0.00    +0.000 S 
ATOM      6  O   UNL     1      12.913   8.986  22.958  0.00  0.00    +0.000 OA
ATOM      7  N   UNL     1      14.951   7.828  23.179  0.00  0.00    +0.000 N 
ATOM      8  C   UNL     1      15.025   6.695  24.082  0.00  0.00    +0.000 C 
ATOM      9  CA  UNL     1      13.483   6.803  24.193  0.00  0.00    +0.000 C 
ATOM     10  C   UNL     1      13.643   8.110  23.359  0.00  0.00    +0.000 C 
ATOM     11  CA  UNL     1      15.993   8.299  22.447  0.00  0.00    +0.000 C 
ATOM     12  C   UNL     1      17.129   7.579  22.300  0.00  0.00    +0.000 C 
ATOM     13  C   UNL     1      17.306   6.165  22.843  0.00  0.00    +0.000 C 
BRANCH  11  16
ATOM     14  O   UNL     1      16.147  10.640  22.421  0.00  0.00    +0.000 OA
ATOM     15  OXT UNL     1      15.425   9.550  20.544  0.00  0.00    +0.000 OA
ATOM     16  C   UNL     1      15.839   9.634  21.730  0.00  0.00    +0.000 C 
ENDBRANCH  11  16
BRANCH  12  17
ATOM     17  C   UNL     1      18.357   8.070  21.573  0.00  0.00    +0.000 C 
BRANCH  17  18
ATOM     18  S   UNL     1      18.308   7.501  19.865  0.00  0.00    +0.000 S 
BRANCH  18  20
ATOM     19  N   UNL     1      22.383   8.744  18.349  0.00  0.00    +0.000 N 
ATOM     20  C   UNL     1      19.924   7.993  19.265  0.00  0.00    +0.000 A 
ATOM     21  C   UNL     1      20.233   7.863  17.914  0.00  0.00    +0.000 A 
ATOM     22  C   UNL     1      20.869   8.507  20.147  0.00  0.00    +0.000 A 
ATOM     23  C   UNL     1      21.491   8.252  17.477  0.00  0.00    +0.000 A 
ATOM     24  C   UNL     1      22.111   8.879  19.654  0.00  0.00    +0.000 A 
BRANCH  19  25
ATOM     25  C   UNL     1      23.698   9.144  17.858  0.00  0.00    +0.000 C 
BRANCH  25  26
ATOM     26  C   UNL     1      24.021   8.533  16.500  0.00  0.00    +0.000 C 
BRANCH  26  27
ATOM     27  O   UNL     1      24.914   9.381  15.790  0.00  0.00    +0.000 OA
ATOM     28  H   UNL     1      22.478  18.154  14.868  0.00  0.00    +0.000 HD
ENDBRANCH  26  27
ENDBRANCH  25  26
ENDBRANCH  19  25
ENDBRANCH  18  20
ENDBRANCH  17  18
ENDBRANCH  12  17
ENDBRANCH   2   9
BRANCH   3  30
ATOM     29  N   UNL     1      12.060   2.892  22.444  0.00  0.00    +0.000 NA
ATOM     30  C   UNL     1      11.479   3.698  23.280  0.00  0.00    +0.000 C 
BRANCH  30  34
ATOM     31  S   UNL     1       7.558   4.374  23.104  0.00  0.00    +0.000 S 
ATOM     32  N   UNL     1       9.331   2.856  24.213  0.00  0.00    +0.000 NA
ATOM     33  N   UNL     1       7.094   2.400  24.824  0.00  0.00    +0.000 N 
ATOM     34  C   UNL     1       9.997   3.744  23.392  0.00  0.00    +0.000 A 
ATOM     35  C   UNL     1       9.204   4.643  22.707  0.00  0.00    +0.000 A 
ATOM     36  C   UNL     1       8.041   3.095  24.141  0.00  0.00    +0.000 A 
ATOM     37  H   UNL     1      16.668   5.001  23.378  0.00  0.00    +0.000 HD
ATOM     38  H   UNL     1      16.668   5.001  23.378  0.00  0.00    +0.000 HD
ENDBRANCH  30  34
BRANCH  29  39
ATOM     39  O   UNL     1      13.456   2.999  22.501  0.00  0.00    +0.000 OA
BRANCH  39  40
ATOM     40  C   UNL     1      13.999   1.689  22.534  0.00  0.00    +0.000 C 
BRANCH  40  43
ATOM     41  O   UNL     1      14.427  -0.484  18.227  0.00  0.00    +0.000 OA
ATOM     42  N   UNL     1      15.875   2.019  21.004  0.00  0.00    +0.000 N 
ATOM     43  C   UNL     1      14.673   1.387  21.246  0.00  0.00    +0.000 A 
ATOM     44  C   UNL     1      14.140   0.536  20.349  0.00  0.00    +0.000 A 
ATOM     45  C   UNL     1      14.875   0.283  19.072  0.00  0.00    +0.000 A 
ATOM     46  C   UNL     1      16.581   1.817  19.851  0.00  0.00    +0.000 A 
ATOM     47  C   UNL     1      16.173   0.999  18.871  0.00  0.00    +0.000 A 
ATOM     48  H   UNL     1      15.608   3.983  19.628  0.00  0.00    +0.000 HD
BRANCH  47  49
ATOM     49  O   UNL     1      16.891   0.803  17.717  0.00  0.00    +0.000 OA
ATOM     50  H   UNL     1      15.608   3.983  19.628  0.00  0.00    +0.000 HD
ENDBRANCH  47  49
ENDBRANCH  40  43
ENDBRANCH  39  40
ENDBRANCH  29  39
ENDBRANCH   3  30
TORSDOF 14
ENDMDL
MODEL 6
REMARK minimizedAffinity -7.24338531
REMARK minimizedRMSD -1
REMARK  Name = 145948210
REMARK  14 active torsions:
REMARK  status: ('A' for Active; 'I' for Inactive)
REMARK    1  A    between atoms: S_2  and  C_25
REMARK    2  A    between atoms: S_2  and  C_29
REMARK    3  A    between atoms: O_8  and  N_14
REMARK    4  A    between atoms: O_8  and  C_38
REMARK    5  A    between atoms: O_9  and  C_39
REMARK    6  A    between atoms: O_10  and  C_44
REMARK    7  A    between atoms: N_13  and  CA_20
REMARK    8  A    between atoms: N_15  and  C_36
REMARK    9  A    between atoms: CA_22  and  C_26
REMARK   10  A    between atoms: C_23  and  C_25
REMARK   11  A    between atoms: C_27  and  C_28
REMARK   12  A    between atoms: C_28  and  C_30
REMARK   13  A    between atoms: C_36  and  C_39
REMARK   14  A    between atoms: C_38  and  C_40
REMARK                            x       y       z     vdW  Elec       q    Type
REMARK                         _______ _______ _______ _____ _____    ______ ____
ROOT
ATOM      1  O   UNL     1      13.865   2.058  24.122  0.00  0.00    +0.000 OA
ATOM      2  N   UNL     1      13.930   3.776  22.523  0.00  0.00    +0.000 N 
ATOM      3  C   UNL     1      13.542   2.555  23.055  0.00  0.00    +0.000 C 
ATOM      4  H   UNL     1      12.433   7.037  23.174  0.00  0.00    +0.000 HD
ENDROOT
BRANCH   2   9
ATOM      5  S   UNL     1      15.946   5.153  20.579  0.00  0.00    +0.000 S 
ATOM      6  O   UNL     1      13.314   6.529  24.166  0.00  0.00    +0.000 OA
ATOM      7  N   UNL     1      15.066   6.637  22.597  0.00  0.00    +0.000 N 
ATOM      8  C   UNL     1      15.877   5.458  22.361  0.00  0.00    +0.000 C 
ATOM      9  CA  UNL     1      14.835   4.688  23.213  0.00  0.00    +0.000 C 
ATOM     10  C   UNL     1      14.218   6.091  23.495  0.00  0.00    +0.000 C 
ATOM     11  CA  UNL     1      15.252   7.835  21.985  0.00  0.00    +0.000 C 
ATOM     12  C   UNL     1      16.052   7.952  20.900  0.00  0.00    +0.000 C 
ATOM     13  C   UNL     1      16.723   6.765  20.218  0.00  0.00    +0.000 C 
BRANCH  11  16
ATOM     14  O   UNL     1      13.322   9.169  22.042  0.00  0.00    +0.000 OA
ATOM     15  OXT UNL     1      15.125   9.764  23.317  0.00  0.00    +0.000 OA
ATOM     16  C   UNL     1      14.487   9.048  22.502  0.00  0.00    +0.000 C 
ENDBRANCH  11  16
BRANCH  12  17
ATOM     17  C   UNL     1      16.372   9.259  20.218  0.00  0.00    +0.000 C 
BRANCH  17  18
ATOM     18  S   UNL     1      17.936   9.894  20.846  0.00  0.00    +0.000 S 
BRANCH  18  20
ATOM     19  N   UNL     1      20.825   8.637  17.603  0.00  0.00    +0.000 N 
ATOM     20  C   UNL     1      19.081   9.395  19.561  0.00  0.00    +0.000 A 
ATOM     21  C   UNL     1      18.935   9.890  18.268  0.00  0.00    +0.000 A 
ATOM     22  C   UNL     1      20.117   8.514  19.854  0.00  0.00    +0.000 A 
ATOM     23  C   UNL     1      19.836   9.487  17.294  0.00  0.00    +0.000 A 
ATOM     24  C   UNL     1      20.988   8.145  18.839  0.00  0.00    +0.000 A 
BRANCH  19  25
ATOM     25  C   UNL     1      21.757   8.232  16.555  0.00  0.00    +0.000 C 
BRANCH  25  26
ATOM     26  C   UNL     1      21.589   6.768  16.163  0.00  0.00    +0.000 C 
BRANCH  26  27
ATOM     27  O   UNL     1      20.334   6.584  15.521  0.00  0.00    +0.000 OA
ATOM     28  H   UNL     1      12.911   9.604  19.939  0.00  0.00    +0.000 HD
ENDBRANCH  26  27
ENDBRANCH  25  26
ENDBRANCH  19  25
ENDBRANCH  18  20
ENDBRANCH  17  18
ENDBRANCH  12  17
ENDBRANCH   2   9
BRANCH   3  30
ATOM     29  N   UNL     1      11.334   2.038  22.172  0.00  0.00    +0.000 NA
ATOM     30  C   UNL     1      12.608   1.787  22.158  0.00  0.00    +0.000 C 
BRANCH  30  34
ATOM     31  S   UNL     1      13.580  -1.423  20.009  0.00  0.00    +0.000 S 
ATOM     32  N   UNL     1      14.269   1.026  20.469  0.00  0.00    +0.000 NA
ATOM     33  N   UNL     1      15.604  -0.114  18.885  0.00  0.00    +0.000 N 
ATOM     34  C   UNL     1      13.171   0.746  21.257  0.00  0.00    +0.000 A 
ATOM     35  C   UNL     1      12.657  -0.530  21.144  0.00  0.00    +0.000 A 
ATOM     36  C   UNL     1      14.573  -0.044  19.768  0.00  0.00    +0.000 A 
ATOM     37  H   UNL     1      10.905   4.451  26.474  0.00  0.00    +0.000 HD
ATOM     38  H   UNL     1      10.905   4.451  26.474  0.00  0.00    +0.000 HD
ENDBRANCH  30  34
BRANCH  29  39
ATOM     39  O   UNL     1      11.014   3.055  23.082  0.00  0.00    +0.000 OA
BRANCH  39  40
ATOM     40  C   UNL     1      10.128   2.517  24.051  0.00  0.00    +0.000 C 
BRANCH  40  43
ATOM     41  O   UNL     1       6.136   5.090  23.099  0.00  0.00    +0.000 OA
ATOM     42  N   UNL     1       8.043   1.565  23.205  0.00  0.00    +0.000 N 
ATOM     43  C   UNL     1       8.722   2.696  23.606  0.00  0.00    +0.000 A 
ATOM     44  C   UNL     1       8.131   3.906  23.592  0.00  0.00    +0.000 A 
ATOM     45  C   UNL     1       6.713   4.009  23.129  0.00  0.00    +0.000 A 
ATOM     46  C   UNL     1       6.746   1.612  22.776  0.00  0.00    +0.000 A 
ATOM     47  C   UNL     1       6.033   2.745  22.708  0.00  0.00    +0.000 A 
ATOM     48  H   UNL     1       8.056   1.299  20.807  0.00  0.00    +0.000 HD
BRANCH  47  49
ATOM     49  O   UNL     1       4.730   2.780  22.275  0.00  0.00    +0.000 OA
ATOM     50  H   UNL     1       8.056   1.299  20.807  0.00  0.00    +0.000 HD
ENDBRANCH  47  49
ENDBRANCH  40  43
ENDBRANCH  39  40
ENDBRANCH  29  39
ENDBRANCH   3  30
TORSDOF 14
ENDMDL
MODEL 7
REMARK minimizedAffinity -7.12093735
REMARK minimizedRMSD -1
REMARK  Name = 145948210
REMARK  14 active torsions:
REMARK  status: ('A' for Active; 'I' for Inactive)
REMARK    1  A    between atoms: S_2  and  C_25
REMARK    2  A    between atoms: S_2  and  C_29
REMARK    3  A    between atoms: O_8  and  N_14
REMARK    4  A    between atoms: O_8  and  C_38
REMARK    5  A    between atoms: O_9  and  C_39
REMARK    6  A    between atoms: O_10  and  C_44
REMARK    7  A    between atoms: N_13  and  CA_20
REMARK    8  A    between atoms: N_15  and  C_36
REMARK    9  A    between atoms: CA_22  and  C_26
REMARK   10  A    between atoms: C_23  and  C_25
REMARK   11  A    between atoms: C_27  and  C_28
REMARK   12  A    between atoms: C_28  and  C_30
REMARK   13  A    between atoms: C_36  and  C_39
REMARK   14  A    between atoms: C_38  and  C_40
REMARK                            x       y       z     vdW  Elec       q    Type
REMARK                         _______ _______ _______ _____ _____    ______ ____
ROOT
ATOM      1  O   UNL     1      18.631   6.498  16.120  0.00  0.00    +0.000 OA
ATOM      2  N   UNL     1      20.549   6.630  17.468  0.00  0.00    +0.000 N 
ATOM      3  C   UNL     1      19.386   6.059  16.973  0.00  0.00    +0.000 C 
ATOM      4  H   UNL     1      23.896   6.397  16.040  0.00  0.00    +0.000 HD
ENDROOT
BRANCH   2   9
ATOM      5  S   UNL     1      21.641   8.393  19.801  0.00  0.00    +0.000 S 
ATOM      6  O   UNL     1      23.054   7.326  15.493  0.00  0.00    +0.000 OA
ATOM      7  N   UNL     1      22.950   8.558  17.496  0.00  0.00    +0.000 N 
ATOM      8  C   UNL     1      21.652   8.883  18.059  0.00  0.00    +0.000 C 
ATOM      9  CA  UNL     1      21.058   7.915  17.004  0.00  0.00    +0.000 C 
ATOM     10  C   UNL     1      22.508   7.848  16.437  0.00  0.00    +0.000 C 
ATOM     11  CA  UNL     1      24.139   8.934  18.034  0.00  0.00    +0.000 C 
ATOM     12  C   UNL     1      24.216   9.421  19.294  0.00  0.00    +0.000 C 
ATOM     13  C   UNL     1      23.023   9.500  20.241  0.00  0.00    +0.000 C 
BRANCH  11  16
ATOM     14  O   UNL     1      26.040   7.676  17.475  0.00  0.00    +0.000 OA
ATOM     15  OXT UNL     1      25.653   9.653  16.391  0.00  0.00    +0.000 OA
ATOM     16  C   UNL     1      25.408   8.734  17.216  0.00  0.00    +0.000 C 
ENDBRANCH  11  16
BRANCH  12  17
ATOM     17  C   UNL     1      25.485   9.935  19.929  0.00  0.00    +0.000 C 
BRANCH  17  18
ATOM     18  S   UNL     1      25.069  10.968  21.344  0.00  0.00    +0.000 S 
BRANCH  18  20
ATOM     19  N   UNL     1      26.197   8.297  24.815  0.00  0.00    +0.000 N 
ATOM     20  C   UNL     1      25.516   9.909  22.719  0.00  0.00    +0.000 A 
ATOM     21  C   UNL     1      25.410  10.381  24.025  0.00  0.00    +0.000 A 
ATOM     22  C   UNL     1      25.969   8.615  22.484  0.00  0.00    +0.000 A 
ATOM     23  C   UNL     1      25.763   9.540  25.070  0.00  0.00    +0.000 A 
ATOM     24  C   UNL     1      26.309   7.818  23.568  0.00  0.00    +0.000 A 
BRANCH  19  25
ATOM     25  C   UNL     1      26.560   7.436  25.936  0.00  0.00    +0.000 C 
BRANCH  25  26
ATOM     26  C   UNL     1      25.341   6.930  26.698  0.00  0.00    +0.000 C 
BRANCH  26  27
ATOM     27  O   UNL     1      25.316   7.501  28.000  0.00  0.00    +0.000 OA
ATOM     28  H   UNL     1      32.875   6.622  33.083  0.00  0.00    +0.000 HD
ENDBRANCH  26  27
ENDBRANCH  25  26
ENDBRANCH  19  25
ENDBRANCH  18  20
ENDBRANCH  17  18
ENDBRANCH  12  17
ENDBRANCH   2   9
BRANCH   3  30
ATOM     29  N   UNL     1      18.338   4.684  18.687  0.00  0.00    +0.000 NA
ATOM     30  C   UNL     1      19.059   4.733  17.608  0.00  0.00    +0.000 C 
BRANCH  30  34
ATOM     31  S   UNL     1      20.215   1.076  16.533  0.00  0.00    +0.000 S 
ATOM     32  N   UNL     1      20.114   3.523  15.706  0.00  0.00    +0.000 NA
ATOM     33  N   UNL     1      21.063   1.986  14.182  0.00  0.00    +0.000 N 
ATOM     34  C   UNL     1      19.569   3.488  16.975  0.00  0.00    +0.000 A 
ATOM     35  C   UNL     1      19.537   2.249  17.583  0.00  0.00    +0.000 A 
ATOM     36  C   UNL     1      20.488   2.309  15.370  0.00  0.00    +0.000 A 
ATOM     37  H   UNL     1      18.284   8.831  20.960  0.00  0.00    +0.000 HD
ATOM     38  H   UNL     1      18.284   8.831  20.960  0.00  0.00    +0.000 HD
ENDBRANCH  30  34
BRANCH  29  39
ATOM     39  O   UNL     1      17.954   5.963  19.114  0.00  0.00    +0.000 OA
BRANCH  39  40
ATOM     40  C   UNL     1      17.049   5.813  20.197  0.00  0.00    +0.000 C 
BRANCH  40  43
ATOM     41  O   UNL     1      16.493  10.623  20.075  0.00  0.00    +0.000 OA
ATOM     42  N   UNL     1      16.377   7.172  22.113  0.00  0.00    +0.000 N 
ATOM     43  C   UNL     1      16.734   7.142  20.781  0.00  0.00    +0.000 A 
ATOM     44  C   UNL     1      16.789   8.270  20.048  0.00  0.00    +0.000 A 
ATOM     45  C   UNL     1      16.455   9.572  20.704  0.00  0.00    +0.000 A 
ATOM     46  C   UNL     1      16.065   8.339  22.754  0.00  0.00    +0.000 A 
ATOM     47  C   UNL     1      16.078   9.537  22.151  0.00  0.00    +0.000 A 
ATOM     48  H   UNL     1      13.984   7.225  22.414  0.00  0.00    +0.000 HD
BRANCH  47  49
ATOM     49  O   UNL     1      15.762  10.703  22.804  0.00  0.00    +0.000 OA
ATOM     50  H   UNL     1      13.984   7.225  22.414  0.00  0.00    +0.000 HD
ENDBRANCH  47  49
ENDBRANCH  40  43
ENDBRANCH  39  40
ENDBRANCH  29  39
ENDBRANCH   3  30
TORSDOF 14
ENDMDL
MODEL 8
REMARK minimizedAffinity -7.07545042
REMARK minimizedRMSD -1
REMARK  Name = 145948210
REMARK  14 active torsions:
REMARK  status: ('A' for Active; 'I' for Inactive)
REMARK    1  A    between atoms: S_2  and  C_25
REMARK    2  A    between atoms: S_2  and  C_29
REMARK    3  A    between atoms: O_8  and  N_14
REMARK    4  A    between atoms: O_8  and  C_38
REMARK    5  A    between atoms: O_9  and  C_39
REMARK    6  A    between atoms: O_10  and  C_44
REMARK    7  A    between atoms: N_13  and  CA_20
REMARK    8  A    between atoms: N_15  and  C_36
REMARK    9  A    between atoms: CA_22  and  C_26
REMARK   10  A    between atoms: C_23  and  C_25
REMARK   11  A    between atoms: C_27  and  C_28
REMARK   12  A    between atoms: C_28  and  C_30
REMARK   13  A    between atoms: C_36  and  C_39
REMARK   14  A    between atoms: C_38  and  C_40
REMARK                            x       y       z     vdW  Elec       q    Type
REMARK                         _______ _______ _______ _____ _____    ______ ____
ROOT
ATOM      1  O   UNL     1      15.922   9.085  23.464  0.00  0.00    +0.000 OA
ATOM      2  N   UNL     1      15.259   7.076  22.444  0.00  0.00    +0.000 N 
ATOM      3  C   UNL     1      16.113   8.133  22.724  0.00  0.00    +0.000 C 
ATOM      4  H   UNL     1      14.840   4.011  24.374  0.00  0.00    +0.000 HD
ENDROOT
BRANCH   2   9
ATOM      5  S   UNL     1      13.768   4.500  21.504  0.00  0.00    +0.000 S 
ATOM      6  O   UNL     1      14.351   6.717  25.559  0.00  0.00    +0.000 OA
ATOM      7  N   UNL     1      13.349   5.245  24.019  0.00  0.00    +0.000 N 
ATOM      8  C   UNL     1      13.087   5.707  22.668  0.00  0.00    +0.000 C 
ATOM      9  CA  UNL     1      13.932   6.955  23.033  0.00  0.00    +0.000 C 
ATOM     10  C   UNL     1      13.937   6.371  24.478  0.00  0.00    +0.000 C 
ATOM     11  CA  UNL     1      13.037   4.008  24.483  0.00  0.00    +0.000 C 
ATOM     12  C   UNL     1      12.693   3.008  23.641  0.00  0.00    +0.000 C 
ATOM     13  C   UNL     1      12.719   3.141  22.122  0.00  0.00    +0.000 C 
BRANCH  11  16
ATOM     14  O   UNL     1      12.109   4.013  26.639  0.00  0.00    +0.000 OA
ATOM     15  OXT UNL     1      14.258   3.282  26.353  0.00  0.00    +0.000 OA
ATOM     16  C   UNL     1      13.146   3.740  25.980  0.00  0.00    +0.000 C 
ENDBRANCH  11  16
BRANCH  12  17
ATOM     17  C   UNL     1      12.254   1.634  24.086  0.00  0.00    +0.000 C 
BRANCH  17  18
ATOM     18  S   UNL     1      10.949   1.041  22.998  0.00  0.00    +0.000 S 
BRANCH  18  20
ATOM     19  N   UNL     1       7.456   3.638  24.223  0.00  0.00    +0.000 N 
ATOM     20  C   UNL     1       9.565   2.070  23.484  0.00  0.00    +0.000 A 
ATOM     21  C   UNL     1       9.110   3.073  22.632  0.00  0.00    +0.000 A 
ATOM     22  C   UNL     1       8.943   1.868  24.712  0.00  0.00    +0.000 A 
ATOM     23  C   UNL     1       8.037   3.854  23.034  0.00  0.00    +0.000 A 
ATOM     24  C   UNL     1       7.874   2.681  25.061  0.00  0.00    +0.000 A 
BRANCH  19  25
ATOM     25  C   UNL     1       6.328   4.478  24.617  0.00  0.00    +0.000 C 
BRANCH  25  26
ATOM     26  C   UNL     1       5.673   4.000  25.908  0.00  0.00    +0.000 C 
BRANCH  26  27
ATOM     27  O   UNL     1       5.604   5.073  26.838  0.00  0.00    +0.000 OA
ATOM     28  H   UNL     1      13.388   9.533  28.644  0.00  0.00    +0.000 HD
ENDBRANCH  26  27
ENDBRANCH  25  26
ENDBRANCH  19  25
ENDBRANCH  18  20
ENDBRANCH  17  18
ENDBRANCH  12  17
ENDBRANCH   2   9
BRANCH   3  30
ATOM     29  N   UNL     1      18.267   7.094  22.271  0.00  0.00    +0.000 NA
ATOM     30  C   UNL     1      17.427   8.044  21.993  0.00  0.00    +0.000 C 
BRANCH  30  34
ATOM     31  S   UNL     1      18.957  10.599  19.348  0.00  0.00    +0.000 S 
ATOM     32  N   UNL     1      16.718   9.710  20.285  0.00  0.00    +0.000 NA
ATOM     33  N   UNL     1      16.518  11.349  18.594  0.00  0.00    +0.000 N 
ATOM     34  C   UNL     1      17.738   9.056  20.948  0.00  0.00    +0.000 A 
ATOM     35  C   UNL     1      19.020   9.405  20.576  0.00  0.00    +0.000 A 
ATOM     36  C   UNL     1      17.242  10.546  19.418  0.00  0.00    +0.000 A 
ATOM     37  H   UNL     1      17.149   5.382  26.626  0.00  0.00    +0.000 HD
ATOM     38  H   UNL     1      17.149   5.382  26.626  0.00  0.00    +0.000 HD
ENDBRANCH  30  34
BRANCH  29  39
ATOM     39  O   UNL     1      17.781   6.246  23.276  0.00  0.00    +0.000 OA
BRANCH  39  40
ATOM     40  C   UNL     1      18.368   4.967  23.096  0.00  0.00    +0.000 C 
BRANCH  40  43
ATOM     41  O   UNL     1      17.953   4.340  27.881  0.00  0.00    +0.000 OA
ATOM     42  N   UNL     1      18.129   2.793  24.186  0.00  0.00    +0.000 N 
ATOM     43  C   UNL     1      18.216   4.161  24.335  0.00  0.00    +0.000 A 
ATOM     44  C   UNL     1      18.162   4.735  25.552  0.00  0.00    +0.000 A 
ATOM     45  C   UNL     1      18.006   3.860  26.754  0.00  0.00    +0.000 A 
ATOM     46  C   UNL     1      17.987   1.955  25.257  0.00  0.00    +0.000 A 
ATOM     47  C   UNL     1      17.918   2.385  26.524  0.00  0.00    +0.000 A 
ATOM     48  H   UNL     1      15.845   2.018  24.209  0.00  0.00    +0.000 HD
BRANCH  47  49
ATOM     49  O   UNL     1      17.775   1.533  27.593  0.00  0.00    +0.000 OA
ATOM     50  H   UNL     1      15.845   2.018  24.209  0.00  0.00    +0.000 HD
ENDBRANCH  47  49
ENDBRANCH  40  43
ENDBRANCH  39  40
ENDBRANCH  29  39
ENDBRANCH   3  30
TORSDOF 14
ENDMDL
MODEL 9
REMARK minimizedAffinity -7.04524612
REMARK minimizedRMSD -1
REMARK  Name = 145948210
REMARK  14 active torsions:
REMARK  status: ('A' for Active; 'I' for Inactive)
REMARK    1  A    between atoms: S_2  and  C_25
REMARK    2  A    between atoms: S_2  and  C_29
REMARK    3  A    between atoms: O_8  and  N_14
REMARK    4  A    between atoms: O_8  and  C_38
REMARK    5  A    between atoms: O_9  and  C_39
REMARK    6  A    between atoms: O_10  and  C_44
REMARK    7  A    between atoms: N_13  and  CA_20
REMARK    8  A    between atoms: N_15  and  C_36
REMARK    9  A    between atoms: CA_22  and  C_26
REMARK   10  A    between atoms: C_23  and  C_25
REMARK   11  A    between atoms: C_27  and  C_28
REMARK   12  A    between atoms: C_28  and  C_30
REMARK   13  A    between atoms: C_36  and  C_39
REMARK   14  A    between atoms: C_38  and  C_40
REMARK                            x       y       z     vdW  Elec       q    Type
REMARK                         _______ _______ _______ _____ _____    ______ ____
ROOT
ATOM      1  O   UNL     1      22.668   7.658  15.478  0.00  0.00    +0.000 OA
ATOM      2  N   UNL     1      21.812   6.808  17.493  0.00  0.00    +0.000 N 
ATOM      3  C   UNL     1      22.801   7.193  16.598  0.00  0.00    +0.000 C 
ATOM      4  H   UNL     1      20.024   8.940  19.849  0.00  0.00    +0.000 HD
ENDROOT
BRANCH   2   9
ATOM      5  S   UNL     1      20.032   6.498  20.037  0.00  0.00    +0.000 S 
ATOM      6  O   UNL     1      20.077   9.316  16.329  0.00  0.00    +0.000 OA
ATOM      7  N   UNL     1      19.176   8.227  18.212  0.00  0.00    +0.000 N 
ATOM      8  C   UNL     1      19.390   6.801  18.373  0.00  0.00    +0.000 C 
ATOM      9  CA  UNL     1      20.390   6.915  17.193  0.00  0.00    +0.000 C 
ATOM     10  C   UNL     1      19.882   8.383  17.072  0.00  0.00    +0.000 C 
ATOM     11  CA  UNL     1      18.464   9.000  19.071  0.00  0.00    +0.000 C 
ATOM     12  C   UNL     1      18.115   8.548  20.298  0.00  0.00    +0.000 C 
ATOM     13  C   UNL     1      18.561   7.201  20.857  0.00  0.00    +0.000 C 
BRANCH  11  16
ATOM     14  O   UNL     1      17.105  10.524  17.914  0.00  0.00    +0.000 OA
ATOM     15  OXT UNL     1      18.887  11.309  19.115  0.00  0.00    +0.000 OA
ATOM     16  C   UNL     1      18.116  10.425  18.657  0.00  0.00    +0.000 C 
ENDBRANCH  11  16
BRANCH  12  17
ATOM     17  C   UNL     1      17.256   9.315  21.273  0.00  0.00    +0.000 C 
BRANCH  17  18
ATOM     18  S   UNL     1      15.520   9.059  20.871  0.00  0.00    +0.000 S 
BRANCH  18  20
ATOM     19  N   UNL     1      14.019   6.905  24.553  0.00  0.00    +0.000 N 
ATOM     20  C   UNL     1      14.924   8.205  22.330  0.00  0.00    +0.000 A 
ATOM     21  C   UNL     1      15.823   7.559  23.174  0.00  0.00    +0.000 A 
ATOM     22  C   UNL     1      13.564   8.189  22.622  0.00  0.00    +0.000 A 
ATOM     23  C   UNL     1      15.335   6.906  24.296  0.00  0.00    +0.000 A 
ATOM     24  C   UNL     1      13.133   7.519  23.758  0.00  0.00    +0.000 A 
BRANCH  19  25
ATOM     25  C   UNL     1      13.536   6.210  25.742  0.00  0.00    +0.000 C 
BRANCH  25  26
ATOM     26  C   UNL     1      13.531   4.696  25.567  0.00  0.00    +0.000 C 
BRANCH  26  27
ATOM     27  O   UNL     1      12.324   4.288  24.936  0.00  0.00    +0.000 OA
ATOM     28  H   UNL     1       4.486   7.106  28.727  0.00  0.00    +0.000 HD
ENDBRANCH  26  27
ENDBRANCH  25  26
ENDBRANCH  19  25
ENDBRANCH  18  20
ENDBRANCH  17  18
ENDBRANCH  12  17
ENDBRANCH   2   9
BRANCH   3  30
ATOM     29  N   UNL     1      25.021   6.201  16.504  0.00  0.00    +0.000 NA
ATOM     30  C   UNL     1      24.195   6.984  17.128  0.00  0.00    +0.000 C 
BRANCH  30  34
ATOM     31  S   UNL     1      25.415   8.217  20.714  0.00  0.00    +0.000 S 
ATOM     32  N   UNL     1      24.576   9.074  18.425  0.00  0.00    +0.000 NA
ATOM     33  N   UNL     1      25.075  10.758  20.007  0.00  0.00    +0.000 N 
ATOM     34  C   UNL     1      24.606   7.695  18.368  0.00  0.00    +0.000 A 
ATOM     35  C   UNL     1      25.035   7.054  19.513  0.00  0.00    +0.000 A 
ATOM     36  C   UNL     1      24.982   9.460  19.613  0.00  0.00    +0.000 A 
ATOM     37  H   UNL     1      21.688   3.788  13.645  0.00  0.00    +0.000 HD
ATOM     38  H   UNL     1      21.688   3.788  13.645  0.00  0.00    +0.000 HD
ENDBRANCH  30  34
BRANCH  29  39
ATOM     39  O   UNL     1      24.441   5.638  15.359  0.00  0.00    +0.000 OA
BRANCH  39  40
ATOM     40  C   UNL     1      24.447   4.227  15.509  0.00  0.00    +0.000 C 
BRANCH  40  43
ATOM     41  O   UNL     1      19.726   3.225  15.918  0.00  0.00    +0.000 OA
ATOM     42  N   UNL     1      23.138   3.042  13.821  0.00  0.00    +0.000 N 
ATOM     43  C   UNL     1      23.151   3.664  15.051  0.00  0.00    +0.000 A 
ATOM     44  C   UNL     1      22.035   3.754  15.799  0.00  0.00    +0.000 A 
ATOM     45  C   UNL     1      20.765   3.166  15.271  0.00  0.00    +0.000 A 
ATOM     46  C   UNL     1      22.001   2.488  13.300  0.00  0.00    +0.000 A 
ATOM     47  C   UNL     1      20.819   2.504  13.931  0.00  0.00    +0.000 A 
ATOM     48  H   UNL     1      22.349   4.503  12.071  0.00  0.00    +0.000 HD
BRANCH  47  49
ATOM     49  O   UNL     1      19.683   1.945  13.398  0.00  0.00    +0.000 OA
ATOM     50  H   UNL     1      22.349   4.503  12.071  0.00  0.00    +0.000 HD
ENDBRANCH  47  49
ENDBRANCH  40  43
ENDBRANCH  39  40
ENDBRANCH  29  39
ENDBRANCH   3  30
TORSDOF 14
ENDMDL
MODEL 10
REMARK minimizedAffinity -7.0288682
REMARK minimizedRMSD -1
REMARK  Name = 145948210
REMARK  14 active torsions:
REMARK  status: ('A' for Active; 'I' for Inactive)
REMARK    1  A    between atoms: S_2  and  C_25
REMARK    2  A    between atoms: S_2  and  C_29
REMARK    3  A    between atoms: O_8  and  N_14
REMARK    4  A    between atoms: O_8  and  C_38
REMARK    5  A    between atoms: O_9  and  C_39
REMARK    6  A    between atoms: O_10  and  C_44
REMARK    7  A    between atoms: N_13  and  CA_20
REMARK    8  A    between atoms: N_15  and  C_36
REMARK    9  A    between atoms: CA_22  and  C_26
REMARK   10  A    between atoms: C_23  and  C_25
REMARK   11  A    between atoms: C_27  and  C_28
REMARK   12  A    between atoms: C_28  and  C_30
REMARK   13  A    between atoms: C_36  and  C_39
REMARK   14  A    between atoms: C_38  and  C_40
REMARK                            x       y       z     vdW  Elec       q    Type
REMARK                         _______ _______ _______ _____ _____    ______ ____
ROOT
ATOM      1  O   UNL     1      19.011   6.039  16.336  0.00  0.00    +0.000 OA
ATOM      2  N   UNL     1      20.183   5.754  18.351  0.00  0.00    +0.000 N 
ATOM      3  C   UNL     1      19.636   6.467  17.294  0.00  0.00    +0.000 C 
ATOM      4  H   UNL     1      18.491   4.692  21.401  0.00  0.00    +0.000 HD
ENDROOT
BRANCH   2   9
ATOM      5  S   UNL     1      21.042   4.715  21.166  0.00  0.00    +0.000 S 
ATOM      6  O   UNL     1      17.571   3.802  18.199  0.00  0.00    +0.000 OA
ATOM      7  N   UNL     1      19.033   3.424  20.004  0.00  0.00    +0.000 N 
ATOM      8  C   UNL     1      20.454   3.655  19.823  0.00  0.00    +0.000 C 
ATOM      9  CA  UNL     1      20.078   4.305  18.466  0.00  0.00    +0.000 C 
ATOM     10  C   UNL     1      18.636   3.801  18.771  0.00  0.00    +0.000 C 
ATOM     11  CA  UNL     1      18.467   2.978  21.155  0.00  0.00    +0.000 C 
ATOM     12  C   UNL     1      19.157   2.964  22.318  0.00  0.00    +0.000 C 
ATOM     13  C   UNL     1      20.567   3.526  22.467  0.00  0.00    +0.000 C 
BRANCH  11  16
ATOM     14  O   UNL     1      16.183   3.478  21.358  0.00  0.00    +0.000 OA
ATOM     15  OXT UNL     1      16.816   1.330  20.892  0.00  0.00    +0.000 OA
ATOM     16  C   UNL     1      17.004   2.551  21.132  0.00  0.00    +0.000 C 
ENDBRANCH  11  16
BRANCH  12  17
ATOM     17  C   UNL     1      18.625   2.407  23.615  0.00  0.00    +0.000 C 
BRANCH  17  18
ATOM     18  S   UNL     1      18.631   3.701  24.868  0.00  0.00    +0.000 S 
BRANCH  18  20
ATOM     19  N   UNL     1      15.621   6.634  23.198  0.00  0.00    +0.000 N 
ATOM     20  C   UNL     1      17.438   4.863  24.206  0.00  0.00    +0.000 A 
ATOM     21  C   UNL     1      16.096   4.763  24.562  0.00  0.00    +0.000 A 
ATOM     22  C   UNL     1      17.852   5.867  23.336  0.00  0.00    +0.000 A 
ATOM     23  C   UNL     1      15.195   5.676  24.034  0.00  0.00    +0.000 A 
ATOM     24  C   UNL     1      16.906   6.752  22.839  0.00  0.00    +0.000 A 
BRANCH  19  25
ATOM     25  C   UNL     1      14.648   7.580  22.660  0.00  0.00    +0.000 C 
BRANCH  25  26
ATOM     26  C   UNL     1      15.028   9.028  22.947  0.00  0.00    +0.000 C 
BRANCH  26  27
ATOM     27  O   UNL     1      13.878   9.752  23.366  0.00  0.00    +0.000 OA
ATOM     28  H   UNL     1       6.512   9.374  17.950  0.00  0.00    +0.000 HD
ENDBRANCH  26  27
ENDBRANCH  25  26
ENDBRANCH  19  25
ENDBRANCH  18  20
ENDBRANCH  17  18
ENDBRANCH  12  17
ENDBRANCH   2   9
BRANCH   3  30
ATOM     29  N   UNL     1      20.801   8.510  16.670  0.00  0.00    +0.000 NA
ATOM     30  C   UNL     1      19.877   7.950  17.390  0.00  0.00    +0.000 C 
BRANCH  30  34
ATOM     31  S   UNL     1      17.920   9.693  20.390  0.00  0.00    +0.000 S 
ATOM     32  N   UNL     1      18.222   9.758  17.823  0.00  0.00    +0.000 NA
ATOM     33  N   UNL     1      16.704  11.346  18.696  0.00  0.00    +0.000 N 
ATOM     34  C   UNL     1      19.036   8.757  18.315  0.00  0.00    +0.000 A 
ATOM     35  C   UNL     1      19.008   8.573  19.682  0.00  0.00    +0.000 A 
ATOM     36  C   UNL     1      17.587  10.320  18.827  0.00  0.00    +0.000 A 
ATOM     37  H   UNL     1      22.075   3.888  14.688  0.00  0.00    +0.000 HD
ATOM     38  H   UNL     1      22.075   3.888  14.688  0.00  0.00    +0.000 HD
ENDBRANCH  30  34
BRANCH  29  39
ATOM     39  O   UNL     1      21.470   7.578  15.864  0.00  0.00    +0.000 OA
BRANCH  39  40
ATOM     40  C   UNL     1      22.838   7.950  15.802  0.00  0.00    +0.000 C 
BRANCH  40  43
ATOM     41  O   UNL     1      24.948  10.154  19.563  0.00  0.00    +0.000 OA
ATOM     42  N   UNL     1      23.396   6.848  17.910  0.00  0.00    +0.000 N 
ATOM     43  C   UNL     1      23.410   8.012  17.171  0.00  0.00    +0.000 A 
ATOM     44  C   UNL     1      23.918   9.152  17.676  0.00  0.00    +0.000 A 
ATOM     45  C   UNL     1      24.475   9.140  19.064  0.00  0.00    +0.000 A 
ATOM     46  C   UNL     1      23.894   6.790  19.182  0.00  0.00    +0.000 A 
ATOM     47  C   UNL     1      24.430   7.845  19.811  0.00  0.00    +0.000 A 
ATOM     48  H   UNL     1      21.522   6.755  19.426  0.00  0.00    +0.000 HD
BRANCH  47  49
ATOM     49  O   UNL     1      24.928   7.775  21.089  0.00  0.00    +0.000 OA
ATOM     50  H   UNL     1      21.522   6.755  19.426  0.00  0.00    +0.000 HD
ENDBRANCH  47  49
ENDBRANCH  40  43
ENDBRANCH  39  40
ENDBRANCH  29  39
ENDBRANCH   3  30
TORSDOF 14
ENDMDL
MODEL 11
REMARK minimizedAffinity -7.02746534
REMARK minimizedRMSD -1
REMARK  Name = 145948210
REMARK  14 active torsions:
REMARK  status: ('A' for Active; 'I' for Inactive)
REMARK    1  A    between atoms: S_2  and  C_25
REMARK    2  A    between atoms: S_2  and  C_29
REMARK    3  A    between atoms: O_8  and  N_14
REMARK    4  A    between atoms: O_8  and  C_38
REMARK    5  A    between atoms: O_9  and  C_39
REMARK    6  A    between atoms: O_10  and  C_44
REMARK    7  A    between atoms: N_13  and  CA_20
REMARK    8  A    between atoms: N_15  and  C_36
REMARK    9  A    between atoms: CA_22  and  C_26
REMARK   10  A    between atoms: C_23  and  C_25
REMARK   11  A    between atoms: C_27  and  C_28
REMARK   12  A    between atoms: C_28  and  C_30
REMARK   13  A    between atoms: C_36  and  C_39
REMARK   14  A    between atoms: C_38  and  C_40
REMARK                            x       y       z     vdW  Elec       q    Type
REMARK                         _______ _______ _______ _____ _____    ______ ____
ROOT
ATOM      1  O   UNL     1      16.061   9.337  23.157  0.00  0.00    +0.000 OA
ATOM      2  N   UNL     1      15.140   7.413  22.175  0.00  0.00    +0.000 N 
ATOM      3  C   UNL     1      16.099   8.395  22.381  0.00  0.00    +0.000 C 
ATOM      4  H   UNL     1      14.699   4.332  24.074  0.00  0.00    +0.000 HD
ENDROOT
BRANCH   2   9
ATOM      5  S   UNL     1      13.485   4.842  21.551  0.00  0.00    +0.000 S 
ATOM      6  O   UNL     1      14.554   7.265  25.382  0.00  0.00    +0.000 OA
ATOM      7  N   UNL     1      13.354   5.744  24.046  0.00  0.00    +0.000 N 
ATOM      8  C   UNL     1      12.965   6.137  22.704  0.00  0.00    +0.000 C 
ATOM      9  CA  UNL     1      13.879   7.373  22.904  0.00  0.00    +0.000 C 
ATOM     10  C   UNL     1      14.019   6.873  24.373  0.00  0.00    +0.000 C 
ATOM     11  CA  UNL     1      13.056   4.547  24.614  0.00  0.00    +0.000 C 
ATOM     12  C   UNL     1      12.596   3.513  23.874  0.00  0.00    +0.000 C 
ATOM     13  C   UNL     1      12.466   3.558  22.355  0.00  0.00    +0.000 C 
BRANCH  11  16
ATOM     14  O   UNL     1      12.548   5.021  26.856  0.00  0.00    +0.000 OA
ATOM     15  OXT UNL     1      14.256   3.575  26.382  0.00  0.00    +0.000 OA
ATOM     16  C   UNL     1      13.313   4.362  26.105  0.00  0.00    +0.000 C 
ENDBRANCH  11  16
BRANCH  12  17
ATOM     17  C   UNL     1      12.167   2.184  24.444  0.00  0.00    +0.000 C 
BRANCH  17  18
ATOM     18  S   UNL     1      10.979   1.412  23.334  0.00  0.00    +0.000 S 
BRANCH  18  20
ATOM     19  N   UNL     1       7.178   3.652  24.325  0.00  0.00    +0.000 N 
ATOM     20  C   UNL     1       9.473   2.300  23.727  0.00  0.00    +0.000 A 
ATOM     21  C   UNL     1       9.079   3.384  22.948  0.00  0.00    +0.000 A 
ATOM     22  C   UNL     1       8.694   1.906  24.811  0.00  0.00    +0.000 A 
ATOM     23  C   UNL     1       7.909   4.052  23.275  0.00  0.00    +0.000 A 
ATOM     24  C   UNL     1       7.534   2.612  25.092  0.00  0.00    +0.000 A 
BRANCH  19  25
ATOM     25  C   UNL     1       5.951   4.376  24.644  0.00  0.00    +0.000 C 
BRANCH  25  26
ATOM     26  C   UNL     1       5.452   4.078  26.053  0.00  0.00    +0.000 C 
BRANCH  26  27
ATOM     27  O   UNL     1       5.847   5.122  26.934  0.00  0.00    +0.000 OA
ATOM     28  H   UNL     1      14.728   7.324  27.069  0.00  0.00    +0.000 HD
ENDBRANCH  26  27
ENDBRANCH  25  26
ENDBRANCH  19  25
ENDBRANCH  18  20
ENDBRANCH  17  18
ENDBRANCH  12  17
ENDBRANCH   2   9
BRANCH   3  30
ATOM     29  N   UNL     1      18.201   7.324  21.786  0.00  0.00    +0.000 NA
ATOM     30  C   UNL     1      17.315   8.232  21.509  0.00  0.00    +0.000 C 
BRANCH  30  34
ATOM     31  S   UNL     1      17.124  10.918  18.574  0.00  0.00    +0.000 S 
ATOM     32  N   UNL     1      18.557   8.966  19.481  0.00  0.00    +0.000 NA
ATOM     33  N   UNL     1      19.382   9.991  17.517  0.00  0.00    +0.000 N 
ATOM     34  C   UNL     1      17.476   9.120  20.326  0.00  0.00    +0.000 A 
ATOM     35  C   UNL     1      16.591  10.126  19.998  0.00  0.00    +0.000 A 
ATOM     36  C   UNL     1      18.476   9.861  18.521  0.00  0.00    +0.000 A 
ATOM     37  H   UNL     1      15.394   4.707  25.047  0.00  0.00    +0.000 HD
ATOM     38  H   UNL     1      15.394   4.707  25.047  0.00  0.00    +0.000 HD
ENDBRANCH  30  34
BRANCH  29  39
ATOM     39  O   UNL     1      17.858   6.594  22.932  0.00  0.00    +0.000 OA
BRANCH  39  40
ATOM     40  C   UNL     1      18.640   5.410  22.952  0.00  0.00    +0.000 C 
BRANCH  40  43
ATOM     41  O   UNL     1      19.744   3.521  18.631  0.00  0.00    +0.000 OA
ATOM     42  N   UNL     1      17.147   3.979  21.651  0.00  0.00    +0.000 N 
ATOM     43  C   UNL     1      18.373   4.605  21.733  0.00  0.00    +0.000 A 
ATOM     44  C   UNL     1      19.284   4.487  20.748  0.00  0.00    +0.000 A 
ATOM     45  C   UNL     1      18.945   3.657  19.551  0.00  0.00    +0.000 A 
ATOM     46  C   UNL     1      16.795   3.212  20.576  0.00  0.00    +0.000 A 
ATOM     47  C   UNL     1      17.599   3.005  19.524  0.00  0.00    +0.000 A 
ATOM     48  H   UNL     1      17.259   1.668  22.333  0.00  0.00    +0.000 HD
BRANCH  47  49
ATOM     49  O   UNL     1      17.235   2.233  18.448  0.00  0.00    +0.000 OA
ATOM     50  H   UNL     1      17.259   1.668  22.333  0.00  0.00    +0.000 HD
ENDBRANCH  47  49
ENDBRANCH  40  43
ENDBRANCH  39  40
ENDBRANCH  29  39
ENDBRANCH   3  30
TORSDOF 14
ENDMDL
MODEL 12
REMARK minimizedAffinity -6.9891181
REMARK minimizedRMSD -1
REMARK  Name = 145948210
REMARK  14 active torsions:
REMARK  status: ('A' for Active; 'I' for Inactive)
REMARK    1  A    between atoms: S_2  and  C_25
REMARK    2  A    between atoms: S_2  and  C_29
REMARK    3  A    between atoms: O_8  and  N_14
REMARK    4  A    between atoms: O_8  and  C_38
REMARK    5  A    between atoms: O_9  and  C_39
REMARK    6  A    between atoms: O_10  and  C_44
REMARK    7  A    between atoms: N_13  and  CA_20
REMARK    8  A    between atoms: N_15  and  C_36
REMARK    9  A    between atoms: CA_22  and  C_26
REMARK   10  A    between atoms: C_23  and  C_25
REMARK   11  A    between atoms: C_27  and  C_28
REMARK   12  A    between atoms: C_28  and  C_30
REMARK   13  A    between atoms: C_36  and  C_39
REMARK   14  A    between atoms: C_38  and  C_40
REMARK                            x       y       z     vdW  Elec       q    Type
REMARK                         _______ _______ _______ _____ _____    ______ ____
ROOT
ATOM      1  O   UNL     1      12.835   3.719  24.719  0.00  0.00    +0.000 OA
ATOM      2  N   UNL     1      12.813   5.336  23.016  0.00  0.00    +0.000 N 
ATOM      3  C   UNL     1      12.568   4.096  23.589  0.00  0.00    +0.000 C 
ATOM      4  H   UNL     1      10.733   8.321  23.255  0.00  0.00    +0.000 HD
ENDROOT
BRANCH   2   9
ATOM      5  S   UNL     1      15.923   5.080  23.003  0.00  0.00    +0.000 S 
ATOM      6  O   UNL     1      12.866   8.542  22.403  0.00  0.00    +0.000 OA
ATOM      7  N   UNL     1      14.950   7.547  22.859  0.00  0.00    +0.000 N 
ATOM      8  C   UNL     1      15.014   6.433  23.787  0.00  0.00    +0.000 C 
ATOM      9  CA  UNL     1      13.464   6.424  23.734  0.00  0.00    +0.000 C 
ATOM     10  C   UNL     1      13.613   7.729  22.895  0.00  0.00    +0.000 C 
ATOM     11  CA  UNL     1      16.026   8.087  22.230  0.00  0.00    +0.000 C 
ATOM     12  C   UNL     1      17.221   7.456  22.217  0.00  0.00    +0.000 C 
ATOM     13  C   UNL     1      17.446   6.066  22.803  0.00  0.00    +0.000 C 
BRANCH  11  16
ATOM     14  O   UNL     1      15.498   9.269  20.272  0.00  0.00    +0.000 OA
ATOM     15  OXT UNL     1      16.076  10.433  22.154  0.00  0.00    +0.000 OA
ATOM     16  C   UNL     1      15.848   9.399  21.474  0.00  0.00    +0.000 C 
ENDBRANCH  11  16
BRANCH  12  17
ATOM     17  C   UNL     1      18.479   8.031  21.612  0.00  0.00    +0.000 C 
BRANCH  17  18
ATOM     18  S   UNL     1      19.759   6.765  21.579  0.00  0.00    +0.000 S 
BRANCH  18  20
ATOM     19  N   UNL     1      20.093   5.890  17.155  0.00  0.00    +0.000 N 
ATOM     20  C   UNL     1      19.891   6.418  19.825  0.00  0.00    +0.000 A 
ATOM     21  C   UNL     1      20.755   7.166  19.031  0.00  0.00    +0.000 A 
ATOM     22  C   UNL     1      19.131   5.401  19.257  0.00  0.00    +0.000 A 
ATOM     23  C   UNL     1      20.837   6.876  17.677  0.00  0.00    +0.000 A 
ATOM     24  C   UNL     1      19.254   5.156  17.897  0.00  0.00    +0.000 A 
BRANCH  19  25
ATOM     25  C   UNL     1      20.202   5.609  15.726  0.00  0.00    +0.000 C 
BRANCH  25  26
ATOM     26  C   UNL     1      20.670   4.185  15.450  0.00  0.00    +0.000 C 
BRANCH  26  27
ATOM     27  O   UNL     1      22.048   4.059  15.778  0.00  0.00    +0.000 OA
ATOM     28  H   UNL     1      27.794  10.117  12.032  0.00  0.00    +0.000 HD
ENDBRANCH  26  27
ENDBRANCH  25  26
ENDBRANCH  19  25
ENDBRANCH  18  20
ENDBRANCH  17  18
ENDBRANCH  12  17
ENDBRANCH   2   9
BRANCH   3  30
ATOM     29  N   UNL     1      10.598   3.147  22.522  0.00  0.00    +0.000 NA
ATOM     30  C   UNL     1      11.889   3.132  22.652  0.00  0.00    +0.000 C 
BRANCH  30  34
ATOM     31  S   UNL     1      13.604   0.081  20.750  0.00  0.00    +0.000 S 
ATOM     32  N   UNL     1      13.903   2.591  21.294  0.00  0.00    +0.000 NA
ATOM     33  N   UNL     1      15.625   1.634  19.987  0.00  0.00    +0.000 N 
ATOM     34  C   UNL     1      12.724   2.174  21.879  0.00  0.00    +0.000 A 
ATOM     35  C   UNL     1      12.394   0.847  21.693  0.00  0.00    +0.000 A 
ATOM     36  C   UNL     1      14.452   1.572  20.672  0.00  0.00    +0.000 A 
ATOM     37  H   UNL     1       9.141   5.535  26.564  0.00  0.00    +0.000 HD
ATOM     38  H   UNL     1       9.141   5.535  26.564  0.00  0.00    +0.000 HD
ENDBRANCH  30  34
BRANCH  29  39
ATOM     39  O   UNL     1      10.004   4.125  23.331  0.00  0.00    +0.000 OA
BRANCH  39  40
ATOM     40  C   UNL     1       8.734   4.441  22.782  0.00  0.00    +0.000 C 
BRANCH  40  43
ATOM     41  O   UNL     1       5.125   4.338  26.011  0.00  0.00    +0.000 OA
ATOM     42  N   UNL     1       7.475   2.434  23.379  0.00  0.00    +0.000 N 
ATOM     43  C   UNL     1       7.662   3.786  23.575  0.00  0.00    +0.000 A 
ATOM     44  C   UNL     1       6.902   4.476  24.446  0.00  0.00    +0.000 A 
ATOM     45  C   UNL     1       5.840   3.750  25.207  0.00  0.00    +0.000 A 
ATOM     46  C   UNL     1       6.517   1.729  24.054  0.00  0.00    +0.000 A 
ATOM     47  C   UNL     1       5.689   2.284  24.950  0.00  0.00    +0.000 A 
ATOM     48  H   UNL     1       5.678   1.978  21.835  0.00  0.00    +0.000 HD
BRANCH  47  49
ATOM     49  O   UNL     1       4.730   1.567  25.622  0.00  0.00    +0.000 OA
ATOM     50  H   UNL     1       5.678   1.978  21.835  0.00  0.00    +0.000 HD
ENDBRANCH  47  49
ENDBRANCH  40  43
ENDBRANCH  39  40
ENDBRANCH  29  39
ENDBRANCH   3  30
TORSDOF 14
ENDMDL
MODEL 13
REMARK minimizedAffinity -6.97750139
REMARK minimizedRMSD -1
REMARK  Name = 145948210
REMARK  14 active torsions:
REMARK  status: ('A' for Active; 'I' for Inactive)
REMARK    1  A    between atoms: S_2  and  C_25
REMARK    2  A    between atoms: S_2  and  C_29
REMARK    3  A    between atoms: O_8  and  N_14
REMARK    4  A    between atoms: O_8  and  C_38
REMARK    5  A    between atoms: O_9  and  C_39
REMARK    6  A    between atoms: O_10  and  C_44
REMARK    7  A    between atoms: N_13  and  CA_20
REMARK    8  A    between atoms: N_15  and  C_36
REMARK    9  A    between atoms: CA_22  and  C_26
REMARK   10  A    between atoms: C_23  and  C_25
REMARK   11  A    between atoms: C_27  and  C_28
REMARK   12  A    between atoms: C_28  and  C_30
REMARK   13  A    between atoms: C_36  and  C_39
REMARK   14  A    between atoms: C_38  and  C_40
REMARK                            x       y       z     vdW  Elec       q    Type
REMARK                         _______ _______ _______ _____ _____    ______ ____
ROOT
ATOM      1  O   UNL     1      18.958   6.642  16.713  0.00  0.00    +0.000 OA
ATOM      2  N   UNL     1      20.095   5.980  18.658  0.00  0.00    +0.000 N 
ATOM      3  C   UNL     1      19.722   6.849  17.643  0.00  0.00    +0.000 C 
ATOM      4  H   UNL     1      18.317   5.345  21.778  0.00  0.00    +0.000 HD
ENDROOT
BRANCH   2   9
ATOM      5  S   UNL     1      21.468   4.367  20.951  0.00  0.00    +0.000 S 
ATOM      6  O   UNL     1      17.112   4.871  19.381  0.00  0.00    +0.000 OA
ATOM      7  N   UNL     1      18.894   3.857  20.537  0.00  0.00    +0.000 N 
ATOM      8  C   UNL     1      20.175   3.707  19.870  0.00  0.00    +0.000 C 
ATOM      9  CA  UNL     1      19.593   4.616  18.757  0.00  0.00    +0.000 C 
ATOM     10  C   UNL     1      18.250   4.496  19.537  0.00  0.00    +0.000 C 
ATOM     11  CA  UNL     1      18.629   3.431  21.799  0.00  0.00    +0.000 C 
ATOM     12  C   UNL     1      19.623   3.066  22.640  0.00  0.00    +0.000 C 
ATOM     13  C   UNL     1      21.104   3.189  22.296  0.00  0.00    +0.000 C 
BRANCH  11  16
ATOM     14  O   UNL     1      16.884   4.398  23.036  0.00  0.00    +0.000 OA
ATOM     15  OXT UNL     1      16.487   2.472  21.866  0.00  0.00    +0.000 OA
ATOM     16  C   UNL     1      17.184   3.434  22.283  0.00  0.00    +0.000 C 
ENDBRANCH  11  16
BRANCH  12  17
ATOM     17  C   UNL     1      19.403   2.506  24.023  0.00  0.00    +0.000 C 
BRANCH  17  18
ATOM     18  S   UNL     1      20.990   2.066  24.751  0.00  0.00    +0.000 S 
BRANCH  18  20
ATOM     19  N   UNL     1      21.160   4.801  28.348  0.00  0.00    +0.000 N 
ATOM     20  C   UNL     1      21.057   3.150  26.177  0.00  0.00    +0.000 A 
ATOM     21  C   UNL     1      22.275   3.407  26.800  0.00  0.00    +0.000 A 
ATOM     22  C   UNL     1      19.892   3.737  26.661  0.00  0.00    +0.000 A 
ATOM     23  C   UNL     1      22.297   4.249  27.901  0.00  0.00    +0.000 A 
ATOM     24  C   UNL     1      19.975   4.571  27.767  0.00  0.00    +0.000 A 
BRANCH  19  25
ATOM     25  C   UNL     1      21.216   5.684  29.509  0.00  0.00    +0.000 C 
BRANCH  25  26
ATOM     26  C   UNL     1      21.504   7.131  29.125  0.00  0.00    +0.000 C 
BRANCH  26  27
ATOM     27  O   UNL     1      21.059   8.001  30.157  0.00  0.00    +0.000 OA
ATOM     28  H   UNL     1      12.387   7.080  32.929  0.00  0.00    +0.000 HD
ENDBRANCH  26  27
ENDBRANCH  25  26
ENDBRANCH  19  25
ENDBRANCH  18  20
ENDBRANCH  17  18
ENDBRANCH  12  17
ENDBRANCH   2   9
BRANCH   3  30
ATOM     29  N   UNL     1      19.698   9.222  18.181  0.00  0.00    +0.000 NA
ATOM     30  C   UNL     1      20.375   8.202  17.748  0.00  0.00    +0.000 C 
BRANCH  30  34
ATOM     31  S   UNL     1      23.994   8.239  16.085  0.00  0.00    +0.000 S 
ATOM     32  N   UNL     1      22.701   8.961  18.204  0.00  0.00    +0.000 NA
ATOM     33  N   UNL     1      25.003   9.496  18.200  0.00  0.00    +0.000 N 
ATOM     34  C   UNL     1      21.802   8.344  17.356  0.00  0.00    +0.000 A 
ATOM     35  C   UNL     1      22.318   7.887  16.160  0.00  0.00    +0.000 A 
ATOM     36  C   UNL     1      23.887   8.964  17.637  0.00  0.00    +0.000 A 
ATOM     37  H   UNL     1      15.571   6.184  18.967  0.00  0.00    +0.000 HD
ATOM     38  H   UNL     1      15.571   6.184  18.967  0.00  0.00    +0.000 HD
ENDBRANCH  30  34
BRANCH  29  39
ATOM     39  O   UNL     1      18.379   8.874  18.503  0.00  0.00    +0.000 OA
BRANCH  39  40
ATOM     40  C   UNL     1      17.823   9.922  19.281  0.00  0.00    +0.000 C 
BRANCH  40  43
ATOM     41  O   UNL     1      15.271  10.184  23.389  0.00  0.00    +0.000 OA
ATOM     42  N   UNL     1      17.273   8.001  20.687  0.00  0.00    +0.000 N 
ATOM     43  C   UNL     1      17.173   9.363  20.494  0.00  0.00    +0.000 A 
ATOM     44  C   UNL     1      16.513  10.145  21.369  0.00  0.00    +0.000 A 
ATOM     45  C   UNL     1      15.881   9.510  22.567  0.00  0.00    +0.000 A 
ATOM     46  C   UNL     1      16.713   7.379  21.768  0.00  0.00    +0.000 A 
ATOM     47  C   UNL     1      16.027   8.030  22.718  0.00  0.00    +0.000 A 
ATOM     48  H   UNL     1      15.310   6.827  19.919  0.00  0.00    +0.000 HD
BRANCH  47  49
ATOM     49  O   UNL     1      15.468   7.394  23.800  0.00  0.00    +0.000 OA
ATOM     50  H   UNL     1      15.310   6.827  19.919  0.00  0.00    +0.000 HD
ENDBRANCH  47  49
ENDBRANCH  40  43
ENDBRANCH  39  40
ENDBRANCH  29  39
ENDBRANCH   3  30
TORSDOF 14
ENDMDL
MODEL 14
REMARK minimizedAffinity -6.87508774
REMARK minimizedRMSD -1
REMARK  Name = 145948210
REMARK  14 active torsions:
REMARK  status: ('A' for Active; 'I' for Inactive)
REMARK    1  A    between atoms: S_2  and  C_25
REMARK    2  A    between atoms: S_2  and  C_29
REMARK    3  A    between atoms: O_8  and  N_14
REMARK    4  A    between atoms: O_8  and  C_38
REMARK    5  A    between atoms: O_9  and  C_39
REMARK    6  A    between atoms: O_10  and  C_44
REMARK    7  A    between atoms: N_13  and  CA_20
REMARK    8  A    between atoms: N_15  and  C_36
REMARK    9  A    between atoms: CA_22  and  C_26
REMARK   10  A    between atoms: C_23  and  C_25
REMARK   11  A    between atoms: C_27  and  C_28
REMARK   12  A    between atoms: C_28  and  C_30
REMARK   13  A    between atoms: C_36  and  C_39
REMARK   14  A    between atoms: C_38  and  C_40
REMARK                            x       y       z     vdW  Elec       q    Type
REMARK                         _______ _______ _______ _____ _____    ______ ____
ROOT
ATOM      1  O   UNL     1      18.143   5.892  22.850  0.00  0.00    +0.000 OA
ATOM      2  N   UNL     1      17.831   6.090  20.531  0.00  0.00    +0.000 N 
ATOM      3  C   UNL     1      17.449   5.865  21.845  0.00  0.00    +0.000 C 
ATOM      4  H   UNL     1      18.118   9.310  18.843  0.00  0.00    +0.000 HD
ENDROOT
BRANCH   2   9
ATOM      5  S   UNL     1      19.478   3.553  19.764  0.00  0.00    +0.000 S 
ATOM      6  O   UNL     1      18.975   7.845  18.027  0.00  0.00    +0.000 OA
ATOM      7  N   UNL     1      19.998   5.753  18.370  0.00  0.00    +0.000 N 
ATOM      8  C   UNL     1      20.126   5.242  19.722  0.00  0.00    +0.000 C 
ATOM      9  CA  UNL     1      19.201   6.410  20.149  0.00  0.00    +0.000 C 
ATOM     10  C   UNL     1      19.345   6.894  18.675  0.00  0.00    +0.000 C 
ATOM     11  CA  UNL     1      20.449   5.114  17.259  0.00  0.00    +0.000 C 
ATOM     12  C   UNL     1      20.824   3.815  17.300  0.00  0.00    +0.000 C 
ATOM     13  C   UNL     1      20.684   2.937  18.540  0.00  0.00    +0.000 C 
BRANCH  11  16
ATOM     14  O   UNL     1      19.465   5.663  15.201  0.00  0.00    +0.000 OA
ATOM     15  OXT UNL     1      21.477   6.599  15.759  0.00  0.00    +0.000 OA
ATOM     16  C   UNL     1      20.466   5.870  15.936  0.00  0.00    +0.000 C 
ENDBRANCH  11  16
BRANCH  12  17
ATOM     17  C   UNL     1      21.412   3.063  16.131  0.00  0.00    +0.000 C 
BRANCH  17  18
ATOM     18  S   UNL     1      20.231   1.830  15.559  0.00  0.00    +0.000 S 
BRANCH  18  20
ATOM     19  N   UNL     1      20.698   2.104  11.070  0.00  0.00    +0.000 N 
ATOM     20  C   UNL     1      20.415   1.939  13.780  0.00  0.00    +0.000 A 
ATOM     21  C   UNL     1      21.475   2.657  13.232  0.00  0.00    +0.000 A 
ATOM     22  C   UNL     1      19.501   1.304  12.944  0.00  0.00    +0.000 A 
ATOM     23  C   UNL     1      21.593   2.724  11.852  0.00  0.00    +0.000 A 
ATOM     24  C   UNL     1      19.669   1.407  11.571  0.00  0.00    +0.000 A 
BRANCH  19  25
ATOM     25  C   UNL     1      20.849   2.194   9.620  0.00  0.00    +0.000 C 
BRANCH  25  26
ATOM     26  C   UNL     1      21.122   0.837   8.981  0.00  0.00    +0.000 C 
BRANCH  26  27
ATOM     27  O   UNL     1      22.474   0.460   9.212  0.00  0.00    +0.000 OA
ATOM     28  H   UNL     1      28.940   6.488   6.847  0.00  0.00    +0.000 HD
ENDBRANCH  26  27
ENDBRANCH  25  26
ENDBRANCH  19  25
ENDBRANCH  18  20
ENDBRANCH  17  18
ENDBRANCH  12  17
ENDBRANCH   2   9
BRANCH   3  30
ATOM     29  N   UNL     1      15.154   6.462  22.393  0.00  0.00    +0.000 NA
ATOM     30  C   UNL     1      15.985   5.547  21.993  0.00  0.00    +0.000 C 
BRANCH  30  34
ATOM     31  S   UNL     1      14.460   1.872  21.801  0.00  0.00    +0.000 S 
ATOM     32  N   UNL     1      15.740   3.639  20.414  0.00  0.00    +0.000 NA
ATOM     33  N   UNL     1      15.276   1.616  19.282  0.00  0.00    +0.000 N 
ATOM     34  C   UNL     1      15.510   4.176  21.665  0.00  0.00    +0.000 A 
ATOM     35  C   UNL     1      14.830   3.368  22.553  0.00  0.00    +0.000 A 
ATOM     36  C   UNL     1      15.229   2.429  20.371  0.00  0.00    +0.000 A 
ATOM     37  H   UNL     1      18.458   9.704  24.280  0.00  0.00    +0.000 HD
ATOM     38  H   UNL     1      18.458   9.704  24.280  0.00  0.00    +0.000 HD
ENDBRANCH  30  34
BRANCH  29  39
ATOM     39  O   UNL     1      15.801   7.680  22.640  0.00  0.00    +0.000 OA
BRANCH  39  40
ATOM     40  C   UNL     1      15.193   8.675  21.831  0.00  0.00    +0.000 C 
BRANCH  40  43
ATOM     41  O   UNL     1      16.786  10.882  17.824  0.00  0.00    +0.000 OA
ATOM     42  N   UNL     1      17.488   9.445  21.500  0.00  0.00    +0.000 N 
ATOM     43  C   UNL     1      16.218   9.330  20.977  0.00  0.00    +0.000 A 
ATOM     44  C   UNL     1      15.925   9.794  19.748  0.00  0.00    +0.000 A 
ATOM     45  C   UNL     1      17.007  10.445  18.948  0.00  0.00    +0.000 A 
ATOM     46  C   UNL     1      18.509  10.031  20.804  0.00  0.00    +0.000 A 
ATOM     47  C   UNL     1      18.363  10.538  19.572  0.00  0.00    +0.000 A 
ATOM     48  H   UNL     1      17.880  11.619  22.469  0.00  0.00    +0.000 HD
BRANCH  47  49
ATOM     49  O   UNL     1      19.396  11.124  18.882  0.00  0.00    +0.000 OA
ATOM     50  H   UNL     1      17.880  11.619  22.469  0.00  0.00    +0.000 HD
ENDBRANCH  47  49
ENDBRANCH  40  43
ENDBRANCH  39  40
ENDBRANCH  29  39
ENDBRANCH   3  30
TORSDOF 14
ENDMDL
MODEL 15
REMARK minimizedAffinity -6.78125334
REMARK minimizedRMSD -1
REMARK  Name = 145948210
REMARK  14 active torsions:
REMARK  status: ('A' for Active; 'I' for Inactive)
REMARK    1  A    between atoms: S_2  and  C_25
REMARK    2  A    between atoms: S_2  and  C_29
REMARK    3  A    between atoms: O_8  and  N_14
REMARK    4  A    between atoms: O_8  and  C_38
REMARK    5  A    between atoms: O_9  and  C_39
REMARK    6  A    between atoms: O_10  and  C_44
REMARK    7  A    between atoms: N_13  and  CA_20
REMARK    8  A    between atoms: N_15  and  C_36
REMARK    9  A    between atoms: CA_22  and  C_26
REMARK   10  A    between atoms: C_23  and  C_25
REMARK   11  A    between atoms: C_27  and  C_28
REMARK   12  A    between atoms: C_28  and  C_30
REMARK   13  A    between atoms: C_36  and  C_39
REMARK   14  A    between atoms: C_38  and  C_40
REMARK                            x       y       z     vdW  Elec       q    Type
REMARK                         _______ _______ _______ _____ _____    ______ ____
ROOT
ATOM      1  O   UNL     1      16.222   8.561  21.093  0.00  0.00    +0.000 OA
ATOM      2  N   UNL     1      16.366   6.917  22.763  0.00  0.00    +0.000 N 
ATOM      3  C   UNL     1      16.812   7.674  21.690  0.00  0.00    +0.000 C 
ATOM      4  H   UNL     1      16.515   7.805  26.297  0.00  0.00    +0.000 HD
ENDROOT
BRANCH   2   9
ATOM      5  S   UNL     1      14.244   4.973  21.555  0.00  0.00    +0.000 S 
ATOM      6  O   UNL     1      15.353   6.448  25.831  0.00  0.00    +0.000 OA
ATOM      7  N   UNL     1      14.010   5.498  24.148  0.00  0.00    +0.000 N 
ATOM      8  C   UNL     1      13.901   6.171  22.867  0.00  0.00    +0.000 C 
ATOM      9  CA  UNL     1      15.047   7.091  23.360  0.00  0.00    +0.000 C 
ATOM     10  C   UNL     1      14.875   6.359  24.725  0.00  0.00    +0.000 C 
ATOM     11  CA  UNL     1      13.368   4.345  24.469  0.00  0.00    +0.000 C 
ATOM     12  C   UNL     1      12.776   3.584  23.520  0.00  0.00    +0.000 C 
ATOM     13  C   UNL     1      12.857   3.885  22.027  0.00  0.00    +0.000 C 
BRANCH  11  16
ATOM     14  O   UNL     1      14.137   2.901  26.152  0.00  0.00    +0.000 OA
ATOM     15  OXT UNL     1      12.632   4.538  26.689  0.00  0.00    +0.000 OA
ATOM     16  C   UNL     1      13.380   3.880  25.920  0.00  0.00    +0.000 C 
ENDBRANCH  11  16
BRANCH  12  17
ATOM     17  C   UNL     1      11.975   2.337  23.808  0.00  0.00    +0.000 C 
BRANCH  17  18
ATOM     18  S   UNL     1      10.807   2.054  22.468  0.00  0.00    +0.000 S 
BRANCH  18  20
ATOM     19  N   UNL     1       7.058   4.011  24.071  0.00  0.00    +0.000 N 
ATOM     20  C   UNL     1       9.321   2.830  23.103  0.00  0.00    +0.000 A 
ATOM     21  C   UNL     1       8.606   2.226  24.133  0.00  0.00    +0.000 A 
ATOM     22  C   UNL     1       8.882   4.037  22.568  0.00  0.00    +0.000 A 
ATOM     23  C   UNL     1       7.460   2.848  24.605  0.00  0.00    +0.000 A 
ATOM     24  C   UNL     1       7.728   4.613  23.079  0.00  0.00    +0.000 A 
BRANCH  19  25
ATOM     25  C   UNL     1       5.848   4.642  24.590  0.00  0.00    +0.000 C 
BRANCH  25  26
ATOM     26  C   UNL     1       5.477   4.131  25.977  0.00  0.00    +0.000 C 
BRANCH  26  27
ATOM     27  O   UNL     1       5.846   5.091  26.958  0.00  0.00    +0.000 OA
ATOM     28  H   UNL     1      14.503   8.054  26.834  0.00  0.00    +0.000 HD
ENDBRANCH  26  27
ENDBRANCH  25  26
ENDBRANCH  19  25
ENDBRANCH  18  20
ENDBRANCH  17  18
ENDBRANCH  12  17
ENDBRANCH   2   9
BRANCH   3  30
ATOM     29  N   UNL     1      19.106   8.234  21.100  0.00  0.00    +0.000 NA
ATOM     30  C   UNL     1      18.203   7.311  21.244  0.00  0.00    +0.000 C 
BRANCH  30  34
ATOM     31  S   UNL     1      19.472   3.537  21.140  0.00  0.00    +0.000 S 
ATOM     32  N   UNL     1      17.976   5.235  19.890  0.00  0.00    +0.000 NA
ATOM     33  N   UNL     1      18.059   3.074  18.934  0.00  0.00    +0.000 N 
ATOM     34  C   UNL     1      18.523   5.883  20.980  0.00  0.00    +0.000 A 
ATOM     35  C   UNL     1      19.359   5.125  21.775  0.00  0.00    +0.000 A 
ATOM     36  C   UNL     1      18.406   3.993  19.875  0.00  0.00    +0.000 A 
ATOM     37  H   UNL     1      18.598  12.583  22.067  0.00  0.00    +0.000 HD
ATOM     38  H   UNL     1      18.598  12.583  22.067  0.00  0.00    +0.000 HD
ENDBRANCH  30  34
BRANCH  29  39
ATOM     39  O   UNL     1      18.603   9.506  21.405  0.00  0.00    +0.000 OA
BRANCH  39  40
ATOM     40  C   UNL     1      19.356  10.464  20.678  0.00  0.00    +0.000 C 
BRANCH  40  43
ATOM     41  O   UNL     1      22.325   7.929  17.812  0.00  0.00    +0.000 OA
ATOM     42  N   UNL     1      19.005  10.127  18.284  0.00  0.00    +0.000 N 
ATOM     43  C   UNL     1      19.800   9.885  19.385  0.00  0.00    +0.000 A 
ATOM     44  C   UNL     1      20.926   9.154  19.285  0.00  0.00    +0.000 A 
ATOM     45  C   UNL     1      21.308   8.600  17.949  0.00  0.00    +0.000 A 
ATOM     46  C   UNL     1      19.316   9.642  17.044  0.00  0.00    +0.000 A 
ATOM     47  C   UNL     1      20.404   8.899  16.796  0.00  0.00    +0.000 A 
ATOM     48  H   UNL     1      17.510   8.291  17.820  0.00  0.00    +0.000 HD
BRANCH  47  49
ATOM     49  O   UNL     1      20.707   8.417  15.546  0.00  0.00    +0.000 OA
ATOM     50  H   UNL     1      17.510   8.291  17.820  0.00  0.00    +0.000 HD
ENDBRANCH  47  49
ENDBRANCH  40  43
ENDBRANCH  39  40
ENDBRANCH  29  39
ENDBRANCH   3  30
TORSDOF 14
ENDMDL
MODEL 16
REMARK minimizedAffinity -6.77069473
REMARK minimizedRMSD -1
REMARK  Name = 145948210
REMARK  14 active torsions:
REMARK  status: ('A' for Active; 'I' for Inactive)
REMARK    1  A    between atoms: S_2  and  C_25
REMARK    2  A    between atoms: S_2  and  C_29
REMARK    3  A    between atoms: O_8  and  N_14
REMARK    4  A    between atoms: O_8  and  C_38
REMARK    5  A    between atoms: O_9  and  C_39
REMARK    6  A    between atoms: O_10  and  C_44
REMARK    7  A    between atoms: N_13  and  CA_20
REMARK    8  A    between atoms: N_15  and  C_36
REMARK    9  A    between atoms: CA_22  and  C_26
REMARK   10  A    between atoms: C_23  and  C_25
REMARK   11  A    between atoms: C_27  and  C_28
REMARK   12  A    between atoms: C_28  and  C_30
REMARK   13  A    between atoms: C_36  and  C_39
REMARK   14  A    between atoms: C_38  and  C_40
REMARK                            x       y       z     vdW  Elec       q    Type
REMARK                         _______ _______ _______ _____ _____    ______ ____
ROOT
ATOM      1  O   UNL     1      20.845   4.078  21.044  0.00  0.00    +0.000 OA
ATOM      2  N   UNL     1      19.253   5.750  20.614  0.00  0.00    +0.000 N 
ATOM      3  C   UNL     1      20.078   4.678  20.308  0.00  0.00    +0.000 C 
ATOM      4  H   UNL     1      15.911   5.614  22.067  0.00  0.00    +0.000 HD
ENDROOT
BRANCH   2   9
ATOM      5  S   UNL     1      16.899   7.779  20.901  0.00  0.00    +0.000 S 
ATOM      6  O   UNL     1      18.696   4.374  23.521  0.00  0.00    +0.000 OA
ATOM      7  N   UNL     1      17.452   6.315  23.047  0.00  0.00    +0.000 N 
ATOM      8  C   UNL     1      18.050   7.356  22.232  0.00  0.00    +0.000 C 
ATOM      9  CA  UNL     1      19.189   6.344  21.944  0.00  0.00    +0.000 C 
ATOM     10  C   UNL     1      18.481   5.443  23.000  0.00  0.00    +0.000 C 
ATOM     11  CA  UNL     1      16.208   6.380  23.588  0.00  0.00    +0.000 C 
ATOM     12  C   UNL     1      15.317   7.316  23.188  0.00  0.00    +0.000 C 
ATOM     13  C   UNL     1      15.581   8.298  22.051  0.00  0.00    +0.000 C 
BRANCH  11  16
ATOM     14  O   UNL     1      15.450   4.225  24.126  0.00  0.00    +0.000 OA
ATOM     15  OXT UNL     1      15.872   5.712  25.813  0.00  0.00    +0.000 OA
ATOM     16  C   UNL     1      15.802   5.331  24.615  0.00  0.00    +0.000 C 
ENDBRANCH  11  16
BRANCH  12  17
ATOM     17  C   UNL     1      13.950   7.503  23.799  0.00  0.00    +0.000 C 
BRANCH  17  18
ATOM     18  S   UNL     1      12.690   7.209  22.547  0.00  0.00    +0.000 S 
BRANCH  18  20
ATOM     19  N   UNL     1      12.965   2.732  21.975  0.00  0.00    +0.000 N 
ATOM     20  C   UNL     1      12.800   5.435  22.320  0.00  0.00    +0.000 A 
ATOM     21  C   UNL     1      12.034   4.583  23.111  0.00  0.00    +0.000 A 
ATOM     22  C   UNL     1      13.649   4.907  21.353  0.00  0.00    +0.000 A 
ATOM     23  C   UNL     1      12.139   3.214  22.914  0.00  0.00    +0.000 A 
ATOM     24  C   UNL     1      13.713   3.529  21.201  0.00  0.00    +0.000 A 
BRANCH  19  25
ATOM     25  C   UNL     1      13.053   1.286  21.792  0.00  0.00    +0.000 C 
BRANCH  25  26
ATOM     26  C   UNL     1      14.172   0.664  22.618  0.00  0.00    +0.000 C 
BRANCH  26  27
ATOM     27  O   UNL     1      15.313   0.447  21.798  0.00  0.00    +0.000 OA
ATOM     28  H   UNL     1      14.038  -4.260  14.054  0.00  0.00    +0.000 HD
ENDBRANCH  26  27
ENDBRANCH  25  26
ENDBRANCH  19  25
ENDBRANCH  18  20
ENDBRANCH  17  18
ENDBRANCH  12  17
ENDBRANCH   2   9
BRANCH   3  30
ATOM     29  N   UNL     1      20.792   4.724  17.981  0.00  0.00    +0.000 NA
ATOM     30  C   UNL     1      19.976   4.242  18.869  0.00  0.00    +0.000 C 
BRANCH  30  34
ATOM     31  S   UNL     1      17.754   1.151  17.697  0.00  0.00    +0.000 S 
ATOM     32  N   UNL     1      17.596   3.568  18.601  0.00  0.00    +0.000 NA
ATOM     33  N   UNL     1      15.522   2.509  18.195  0.00  0.00    +0.000 N 
ATOM     34  C   UNL     1      18.935   3.250  18.491  0.00  0.00    +0.000 A 
ATOM     35  C   UNL     1      19.218   1.984  18.019  0.00  0.00    +0.000 A 
ATOM     36  C   UNL     1      16.881   2.536  18.211  0.00  0.00    +0.000 A 
ATOM     37  H   UNL     1      24.143   7.597  18.748  0.00  0.00    +0.000 HD
ATOM     38  H   UNL     1      24.143   7.597  18.748  0.00  0.00    +0.000 HD
ENDBRANCH  30  34
BRANCH  29  39
ATOM     39  O   UNL     1      21.697   5.634  18.545  0.00  0.00    +0.000 OA
BRANCH  39  40
ATOM     40  C   UNL     1      21.943   6.658  17.594  0.00  0.00    +0.000 C 
BRANCH  40  43
ATOM     41  O   UNL     1      18.736  10.062  16.334  0.00  0.00    +0.000 OA
ATOM     42  N   UNL     1      20.987   8.292  19.139  0.00  0.00    +0.000 N 
ATOM     43  C   UNL     1      21.042   7.812  17.848  0.00  0.00    +0.000 A 
ATOM     44  C   UNL     1      20.308   8.368  16.865  0.00  0.00    +0.000 A 
ATOM     45  C   UNL     1      19.422   9.526  17.197  0.00  0.00    +0.000 A 
ATOM     46  C   UNL     1      20.192   9.349  19.487  0.00  0.00    +0.000 A 
ATOM     47  C   UNL     1      19.408   9.999  18.615  0.00  0.00    +0.000 A 
ATOM     48  H   UNL     1      19.097   7.416  20.356  0.00  0.00    +0.000 HD
BRANCH  47  49
ATOM     49  O   UNL     1      18.614  11.059  18.976  0.00  0.00    +0.000 OA
ATOM     50  H   UNL     1      19.097   7.416  20.356  0.00  0.00    +0.000 HD
ENDBRANCH  47  49
ENDBRANCH  40  43
ENDBRANCH  39  40
ENDBRANCH  29  39
ENDBRANCH   3  30
TORSDOF 14
ENDMDL
MODEL 17
REMARK minimizedAffinity -6.74148369
REMARK minimizedRMSD -1
REMARK  Name = 145948210
REMARK  14 active torsions:
REMARK  status: ('A' for Active; 'I' for Inactive)
REMARK    1  A    between atoms: S_2  and  C_25
REMARK    2  A    between atoms: S_2  and  C_29
REMARK    3  A    between atoms: O_8  and  N_14
REMARK    4  A    between atoms: O_8  and  C_38
REMARK    5  A    between atoms: O_9  and  C_39
REMARK    6  A    between atoms: O_10  and  C_44
REMARK    7  A    between atoms: N_13  and  CA_20
REMARK    8  A    between atoms: N_15  and  C_36
REMARK    9  A    between atoms: CA_22  and  C_26
REMARK   10  A    between atoms: C_23  and  C_25
REMARK   11  A    between atoms: C_27  and  C_28
REMARK   12  A    between atoms: C_28  and  C_30
REMARK   13  A    between atoms: C_36  and  C_39
REMARK   14  A    between atoms: C_38  and  C_40
REMARK                            x       y       z     vdW  Elec       q    Type
REMARK                         _______ _______ _______ _____ _____    ______ ____
ROOT
ATOM      1  O   UNL     1      20.690   6.344  17.477  0.00  0.00    +0.000 OA
ATOM      2  N   UNL     1      20.286   5.968  19.759  0.00  0.00    +0.000 N 
ATOM      3  C   UNL     1      20.597   6.719  18.635  0.00  0.00    +0.000 C 
ATOM      4  H   UNL     1      16.961   5.115  20.987  0.00  0.00    +0.000 HD
ENDROOT
BRANCH   2   9
ATOM      5  S   UNL     1      19.247   4.847  22.480  0.00  0.00    +0.000 S 
ATOM      6  O   UNL     1      18.100   4.300  18.000  0.00  0.00    +0.000 OA
ATOM      7  N   UNL     1      18.194   3.773  20.292  0.00  0.00    +0.000 N 
ATOM      8  C   UNL     1      19.467   3.854  20.984  0.00  0.00    +0.000 C 
ATOM      9  CA  UNL     1      20.011   4.538  19.704  0.00  0.00    +0.000 C 
ATOM     10  C   UNL     1      18.626   4.188  19.082  0.00  0.00    +0.000 C 
ATOM     11  CA  UNL     1      17.027   3.389  20.869  0.00  0.00    +0.000 C 
ATOM     12  C   UNL     1      16.904   3.303  22.214  0.00  0.00    +0.000 C 
ATOM     13  C   UNL     1      18.003   3.715  23.188  0.00  0.00    +0.000 C 
BRANCH  11  16
ATOM     14  O   UNL     1      15.109   4.126  19.734  0.00  0.00    +0.000 OA
ATOM     15  OXT UNL     1      15.705   1.921  19.601  0.00  0.00    +0.000 OA
ATOM     16  C   UNL     1      15.823   3.117  19.976  0.00  0.00    +0.000 C 
ENDBRANCH  11  16
BRANCH  12  17
ATOM     17  C   UNL     1      15.668   2.806  22.924  0.00  0.00    +0.000 C 
BRANCH  17  18
ATOM     18  S   UNL     1      14.709   4.212  23.511  0.00  0.00    +0.000 S 
BRANCH  18  20
ATOM     19  N   UNL     1      10.469   2.814  22.793  0.00  0.00    +0.000 N 
ATOM     20  C   UNL     1      13.029   3.659  23.227  0.00  0.00    +0.000 A 
ATOM     21  C   UNL     1      12.743   2.824  22.150  0.00  0.00    +0.000 A 
ATOM     22  C   UNL     1      12.008   4.061  24.082  0.00  0.00    +0.000 A 
ATOM     23  C   UNL     1      11.434   2.411  21.954  0.00  0.00    +0.000 A 
ATOM     24  C   UNL     1      10.717   3.618  23.836  0.00  0.00    +0.000 A 
BRANCH  19  25
ATOM     25  C   UNL     1       9.101   2.362  22.560  0.00  0.00    +0.000 C 
BRANCH  25  26
ATOM     26  C   UNL     1       8.303   3.343  21.709  0.00  0.00    +0.000 C 
BRANCH  26  27
ATOM     27  O   UNL     1       7.354   4.023  22.521  0.00  0.00    +0.000 OA
ATOM     28  H   UNL     1       1.745  -1.136  27.586  0.00  0.00    +0.000 HD
ENDBRANCH  26  27
ENDBRANCH  25  26
ENDBRANCH  19  25
ENDBRANCH  18  20
ENDBRANCH  17  18
ENDBRANCH  12  17
ENDBRANCH   2   9
BRANCH   3  30
ATOM     29  N   UNL     1      19.848   8.981  19.129  0.00  0.00    +0.000 NA
ATOM     30  C   UNL     1      20.846   8.172  18.942  0.00  0.00    +0.000 C 
BRANCH  30  34
ATOM     31  S   UNL     1      24.640   9.292  18.476  0.00  0.00    +0.000 S 
ATOM     32  N   UNL     1      22.744   9.143  20.227  0.00  0.00    +0.000 NA
ATOM     33  N   UNL     1      24.783  10.032  21.027  0.00  0.00    +0.000 N 
ATOM     34  C   UNL     1      22.249   8.657  19.032  0.00  0.00    +0.000 A 
ATOM     35  C   UNL     1      23.130   8.660  17.969  0.00  0.00    +0.000 A 
ATOM     36  C   UNL     1      23.994   9.507  20.052  0.00  0.00    +0.000 A 
ATOM     37  H   UNL     1      16.519   5.117  18.184  0.00  0.00    +0.000 HD
ATOM     38  H   UNL     1      16.519   5.117  18.184  0.00  0.00    +0.000 HD
ENDBRANCH  30  34
BRANCH  29  39
ATOM     39  O   UNL     1      18.616   8.325  19.008  0.00  0.00    +0.000 OA
BRANCH  39  40
ATOM     40  C   UNL     1      17.586   9.270  19.252  0.00  0.00    +0.000 C 
BRANCH  40  43
ATOM     41  O   UNL     1      15.402  10.432  23.415  0.00  0.00    +0.000 OA
ATOM     42  N   UNL     1      16.769   7.643  20.881  0.00  0.00    +0.000 N 
ATOM     43  C   UNL     1      16.921   8.972  20.546  0.00  0.00    +0.000 A 
ATOM     44  C   UNL     1      16.480   9.951  21.359  0.00  0.00    +0.000 A 
ATOM     45  C   UNL     1      15.817   9.574  22.645  0.00  0.00    +0.000 A 
ATOM     46  C   UNL     1      16.171   7.253  22.047  0.00  0.00    +0.000 A 
ATOM     47  C   UNL     1      15.685   8.116  22.950  0.00  0.00    +0.000 A 
ATOM     48  H   UNL     1      14.573   6.810  20.332  0.00  0.00    +0.000 HD
BRANCH  47  49
ATOM     49  O   UNL     1      15.086   7.713  24.118  0.00  0.00    +0.000 OA
ATOM     50  H   UNL     1      14.573   6.810  20.332  0.00  0.00    +0.000 HD
ENDBRANCH  47  49
ENDBRANCH  40  43
ENDBRANCH  39  40
ENDBRANCH  29  39
ENDBRANCH   3  30
TORSDOF 14
ENDMDL
MODEL 18
REMARK minimizedAffinity -6.72339821
REMARK minimizedRMSD -1
REMARK  Name = 145948210
REMARK  14 active torsions:
REMARK  status: ('A' for Active; 'I' for Inactive)
REMARK    1  A    between atoms: S_2  and  C_25
REMARK    2  A    between atoms: S_2  and  C_29
REMARK    3  A    between atoms: O_8  and  N_14
REMARK    4  A    between atoms: O_8  and  C_38
REMARK    5  A    between atoms: O_9  and  C_39
REMARK    6  A    between atoms: O_10  and  C_44
REMARK    7  A    between atoms: N_13  and  CA_20
REMARK    8  A    between atoms: N_15  and  C_36
REMARK    9  A    between atoms: CA_22  and  C_26
REMARK   10  A    between atoms: C_23  and  C_25
REMARK   11  A    between atoms: C_27  and  C_28
REMARK   12  A    between atoms: C_28  and  C_30
REMARK   13  A    between atoms: C_36  and  C_39
REMARK   14  A    between atoms: C_38  and  C_40
REMARK                            x       y       z     vdW  Elec       q    Type
REMARK                         _______ _______ _______ _____ _____    ______ ____
ROOT
ATOM      1  O   UNL     1      22.025   7.357  15.821  0.00  0.00    +0.000 OA
ATOM      2  N   UNL     1      20.863   6.262  17.542  0.00  0.00    +0.000 N 
ATOM      3  C   UNL     1      21.953   6.551  16.734  0.00  0.00    +0.000 C 
ATOM      4  H   UNL     1      19.829   8.027  20.561  0.00  0.00    +0.000 HD
ENDROOT
BRANCH   2   9
ATOM      5  S   UNL     1      18.831   5.416  19.755  0.00  0.00    +0.000 S 
ATOM      6  O   UNL     1      20.076   9.424  17.736  0.00  0.00    +0.000 OA
ATOM      7  N   UNL     1      18.712   7.947  18.962  0.00  0.00    +0.000 N 
ATOM      8  C   UNL     1      18.475   6.612  18.445  0.00  0.00    +0.000 C 
ATOM      9  CA  UNL     1      19.573   6.925  17.397  0.00  0.00    +0.000 C 
ATOM     10  C   UNL     1      19.540   8.369  17.982  0.00  0.00    +0.000 C 
ATOM     11  CA  UNL     1      18.183   8.433  20.114  0.00  0.00    +0.000 C 
ATOM     12  C   UNL     1      17.596   7.614  21.017  0.00  0.00    +0.000 C 
ATOM     13  C   UNL     1      17.564   6.095  20.879  0.00  0.00    +0.000 C 
BRANCH  11  16
ATOM     14  O   UNL     1      19.357  10.237  21.048  0.00  0.00    +0.000 OA
ATOM     15  OXT UNL     1      17.373  10.632  19.980  0.00  0.00    +0.000 OA
ATOM     16  C   UNL     1      18.318   9.921  20.411  0.00  0.00    +0.000 C 
ENDBRANCH  11  16
BRANCH  12  17
ATOM     17  C   UNL     1      16.914   8.088  22.277  0.00  0.00    +0.000 C 
BRANCH  17  18
ATOM     18  S   UNL     1      15.183   8.435  21.925  0.00  0.00    +0.000 S 
BRANCH  18  20
ATOM     19  N   UNL     1      13.097   5.043  24.067  0.00  0.00    +0.000 N 
ATOM     20  C   UNL     1      14.356   7.090  22.773  0.00  0.00    +0.000 A 
ATOM     21  C   UNL     1      14.909   6.554  23.933  0.00  0.00    +0.000 A 
ATOM     22  C   UNL     1      13.161   6.581  22.275  0.00  0.00    +0.000 A 
ATOM     23  C   UNL     1      14.247   5.514  24.569  0.00  0.00    +0.000 A 
ATOM     24  C   UNL     1      12.544   5.540  22.953  0.00  0.00    +0.000 A 
BRANCH  19  25
ATOM     25  C   UNL     1      12.425   3.947  24.760  0.00  0.00    +0.000 C 
BRANCH  25  26
ATOM     26  C   UNL     1      11.186   3.464  24.015  0.00  0.00    +0.000 C 
BRANCH  26  27
ATOM     27  O   UNL     1      10.826   2.166  24.471  0.00  0.00    +0.000 OA
ATOM     28  H   UNL     1      17.353  -4.248  24.360  0.00  0.00    +0.000 HD
ENDBRANCH  26  27
ENDBRANCH  25  26
ENDBRANCH  19  25
ENDBRANCH  18  20
ENDBRANCH  17  18
ENDBRANCH  12  17
ENDBRANCH   2   9
BRANCH   3  30
ATOM     29  N   UNL     1      23.967   6.108  18.027  0.00  0.00    +0.000 NA
ATOM     30  C   UNL     1      23.174   5.734  17.069  0.00  0.00    +0.000 C 
BRANCH  30  34
ATOM     31  S   UNL     1      24.550   2.430  15.323  0.00  0.00    +0.000 S 
ATOM     32  N   UNL     1      22.491   3.988  15.433  0.00  0.00    +0.000 NA
ATOM     33  N   UNL     1      22.279   2.145  13.968  0.00  0.00    +0.000 N 
ATOM     34  C   UNL     1      23.445   4.496  16.292  0.00  0.00    +0.000 A 
ATOM     35  C   UNL     1      24.627   3.788  16.367  0.00  0.00    +0.000 A 
ATOM     36  C   UNL     1      22.963   2.899  14.869  0.00  0.00    +0.000 A 
ATOM     37  H   UNL     1      23.459  10.676  19.100  0.00  0.00    +0.000 HD
ATOM     38  H   UNL     1      23.459  10.676  19.100  0.00  0.00    +0.000 HD
ENDBRANCH  30  34
BRANCH  29  39
ATOM     39  O   UNL     1      23.529   7.292  18.635  0.00  0.00    +0.000 OA
BRANCH  39  40
ATOM     40  C   UNL     1      24.669   8.010  19.077  0.00  0.00    +0.000 C 
BRANCH  40  43
ATOM     41  O   UNL     1      25.526  10.363  14.932  0.00  0.00    +0.000 OA
ATOM     42  N   UNL     1      26.776   7.907  17.843  0.00  0.00    +0.000 N 
ATOM     43  C   UNL     1      25.496   8.416  17.912  0.00  0.00    +0.000 A 
ATOM     44  C   UNL     1      25.023   9.245  16.962  0.00  0.00    +0.000 A 
ATOM     45  C   UNL     1      25.915   9.612  15.819  0.00  0.00    +0.000 A 
ATOM     46  C   UNL     1      27.624   8.214  16.816  0.00  0.00    +0.000 A 
ATOM     47  C   UNL     1      27.290   9.025  15.803  0.00  0.00    +0.000 A 
ATOM     48  H   UNL     1      28.418   9.458  18.690  0.00  0.00    +0.000 HD
BRANCH  47  49
ATOM     49  O   UNL     1      28.151   9.327  14.776  0.00  0.00    +0.000 OA
ATOM     50  H   UNL     1      28.418   9.458  18.690  0.00  0.00    +0.000 HD
ENDBRANCH  47  49
ENDBRANCH  40  43
ENDBRANCH  39  40
ENDBRANCH  29  39
ENDBRANCH   3  30
TORSDOF 14
ENDMDL
MODEL 19
REMARK minimizedAffinity -6.63369656
REMARK minimizedRMSD -1
REMARK  Name = 145948210
REMARK  14 active torsions:
REMARK  status: ('A' for Active; 'I' for Inactive)
REMARK    1  A    between atoms: S_2  and  C_25
REMARK    2  A    between atoms: S_2  and  C_29
REMARK    3  A    between atoms: O_8  and  N_14
REMARK    4  A    between atoms: O_8  and  C_38
REMARK    5  A    between atoms: O_9  and  C_39
REMARK    6  A    between atoms: O_10  and  C_44
REMARK    7  A    between atoms: N_13  and  CA_20
REMARK    8  A    between atoms: N_15  and  C_36
REMARK    9  A    between atoms: CA_22  and  C_26
REMARK   10  A    between atoms: C_23  and  C_25
REMARK   11  A    between atoms: C_27  and  C_28
REMARK   12  A    between atoms: C_28  and  C_30
REMARK   13  A    between atoms: C_36  and  C_39
REMARK   14  A    between atoms: C_38  and  C_40
REMARK                            x       y       z     vdW  Elec       q    Type
REMARK                         _______ _______ _______ _____ _____    ______ ____
ROOT
ATOM      1  O   UNL     1      15.949   5.796  20.075  0.00  0.00    +0.000 OA
ATOM      2  N   UNL     1      18.285   6.010  19.959  0.00  0.00    +0.000 N 
ATOM      3  C   UNL     1      17.084   5.416  20.318  0.00  0.00    +0.000 C 
ATOM      4  H   UNL     1      20.076   5.627  16.806  0.00  0.00    +0.000 HD
ENDROOT
BRANCH   2   9
ATOM      5  S   UNL     1      20.779   7.731  20.708  0.00  0.00    +0.000 S 
ATOM      6  O   UNL     1      18.651   6.499  16.753  0.00  0.00    +0.000 OA
ATOM      7  N   UNL     1      20.054   7.768  18.154  0.00  0.00    +0.000 N 
ATOM      8  C   UNL     1      19.561   8.191  19.451  0.00  0.00    +0.000 C 
ATOM      9  CA  UNL     1      18.357   7.249  19.194  0.00  0.00    +0.000 C 
ATOM     10  C   UNL     1      18.963   7.073  17.770  0.00  0.00    +0.000 C 
ATOM     11  CA  UNL     1      21.284   8.069  17.662  0.00  0.00    +0.000 C 
ATOM     12  C   UNL     1      22.255   8.570  18.458  0.00  0.00    +0.000 C 
ATOM     13  C   UNL     1      22.100   8.747  19.965  0.00  0.00    +0.000 C 
BRANCH  11  16
ATOM     14  O   UNL     1      21.058   8.573  15.380  0.00  0.00    +0.000 OA
ATOM     15  OXT UNL     1      22.303   6.758  16.003  0.00  0.00    +0.000 OA
ATOM     16  C   UNL     1      21.579   7.769  16.197  0.00  0.00    +0.000 C 
ENDBRANCH  11  16
BRANCH  12  17
ATOM     17  C   UNL     1      23.614   9.006  17.969  0.00  0.00    +0.000 C 
BRANCH  17  18
ATOM     18  S   UNL     1      24.874   8.452  19.131  0.00  0.00    +0.000 S 
BRANCH  18  20
ATOM     19  N   UNL     1      27.586   5.997  16.472  0.00  0.00    +0.000 N 
ATOM     20  C   UNL     1      25.948   7.479  18.077  0.00  0.00    +0.000 A 
ATOM     21  C   UNL     1      27.289   7.825  17.941  0.00  0.00    +0.000 A 
ATOM     22  C   UNL     1      25.443   6.376  17.395  0.00  0.00    +0.000 A 
ATOM     23  C   UNL     1      28.098   7.054  17.118  0.00  0.00    +0.000 A 
ATOM     24  C   UNL     1      26.299   5.642  16.586  0.00  0.00    +0.000 A 
BRANCH  19  25
ATOM     25  C   UNL     1      28.463   5.205  15.614  0.00  0.00    +0.000 C 
BRANCH  25  26
ATOM     26  C   UNL     1      27.734   4.035  14.964  0.00  0.00    +0.000 C 
BRANCH  26  27
ATOM     27  O   UNL     1      27.714   4.207  13.552  0.00  0.00    +0.000 OA
ATOM     28  H   UNL     1      24.503  12.162  10.368  0.00  0.00    +0.000 HD
ENDBRANCH  26  27
ENDBRANCH  25  26
ENDBRANCH  19  25
ENDBRANCH  18  20
ENDBRANCH  17  18
ENDBRANCH  12  17
ENDBRANCH   2   9
BRANCH   3  30
ATOM     29  N   UNL     1      17.310   4.187  22.406  0.00  0.00    +0.000 NA
ATOM     30  C   UNL     1      17.262   4.147  21.110  0.00  0.00    +0.000 C 
BRANCH  30  34
ATOM     31  S   UNL     1      17.236   0.403  19.749  0.00  0.00    +0.000 S 
ATOM     32  N   UNL     1      17.946   2.809  19.125  0.00  0.00    +0.000 NA
ATOM     33  N   UNL     1      18.412   1.168  17.489  0.00  0.00    +0.000 N 
ATOM     34  C   UNL     1      17.373   2.855  20.381  0.00  0.00    +0.000 A 
ATOM     35  C   UNL     1      16.928   1.650  20.885  0.00  0.00    +0.000 A 
ATOM     36  C   UNL     1      17.927   1.568  18.695  0.00  0.00    +0.000 A 
ATOM     37  H   UNL     1      17.709   8.016  24.779  0.00  0.00    +0.000 HD
ATOM     38  H   UNL     1      17.709   8.016  24.779  0.00  0.00    +0.000 HD
ENDBRANCH  30  34
BRANCH  29  39
ATOM     39  O   UNL     1      17.180   5.495  22.893  0.00  0.00    +0.000 OA
BRANCH  39  40
ATOM     40  C   UNL     1      16.066   5.531  23.771  0.00  0.00    +0.000 C 
BRANCH  40  43
ATOM     41  O   UNL     1      15.077  10.235  23.181  0.00  0.00    +0.000 OA
ATOM     42  N   UNL     1      13.898   6.405  23.063  0.00  0.00    +0.000 N 
ATOM     43  C   UNL     1      15.194   6.686  23.438  0.00  0.00    +0.000 A 
ATOM     44  C   UNL     1      15.645   7.954  23.495  0.00  0.00    +0.000 A 
ATOM     45  C   UNL     1      14.710   9.067  23.142  0.00  0.00    +0.000 A 
ATOM     46  C   UNL     1      13.008   7.390  22.733  0.00  0.00    +0.000 A 
ATOM     47  C   UNL     1      13.317   8.695  22.745  0.00  0.00    +0.000 A 
ATOM     48  H   UNL     1      13.629   6.377  20.665  0.00  0.00    +0.000 HD
BRANCH  47  49
ATOM     49  O   UNL     1      12.415   9.676  22.412  0.00  0.00    +0.000 OA
ATOM     50  H   UNL     1      13.629   6.377  20.665  0.00  0.00    +0.000 HD
ENDBRANCH  47  49
ENDBRANCH  40  43
ENDBRANCH  39  40
ENDBRANCH  29  39
ENDBRANCH   3  30
TORSDOF 14
ENDMDL
MODEL 20
REMARK minimizedAffinity -6.58085728
REMARK minimizedRMSD -1
REMARK  Name = 145948210
REMARK  14 active torsions:
REMARK  status: ('A' for Active; 'I' for Inactive)
REMARK    1  A    between atoms: S_2  and  C_25
REMARK    2  A    between atoms: S_2  and  C_29
REMARK    3  A    between atoms: O_8  and  N_14
REMARK    4  A    between atoms: O_8  and  C_38
REMARK    5  A    between atoms: O_9  and  C_39
REMARK    6  A    between atoms: O_10  and  C_44
REMARK    7  A    between atoms: N_13  and  CA_20
REMARK    8  A    between atoms: N_15  and  C_36
REMARK    9  A    between atoms: CA_22  and  C_26
REMARK   10  A    between atoms: C_23  and  C_25
REMARK   11  A    between atoms: C_27  and  C_28
REMARK   12  A    between atoms: C_28  and  C_30
REMARK   13  A    between atoms: C_36  and  C_39
REMARK   14  A    between atoms: C_38  and  C_40
REMARK                            x       y       z     vdW  Elec       q    Type
REMARK                         _______ _______ _______ _____ _____    ______ ____
ROOT
ATOM      1  O   UNL     1      14.037   2.592  25.009  0.00  0.00    +0.000 OA
ATOM      2  N   UNL     1      13.603   4.402  23.578  0.00  0.00    +0.000 N 
ATOM      3  C   UNL     1      13.563   3.080  23.995  0.00  0.00    +0.000 C 
ATOM      4  H   UNL     1      11.326   7.083  24.540  0.00  0.00    +0.000 HD
ENDROOT
BRANCH   2   9
ATOM      5  S   UNL     1      16.624   4.701  22.854  0.00  0.00    +0.000 S 
ATOM      6  O   UNL     1      13.082   7.624  23.625  0.00  0.00    +0.000 OA
ATOM      7  N   UNL     1      15.327   6.948  23.418  0.00  0.00    +0.000 N 
ATOM      8  C   UNL     1      15.759   5.725  24.069  0.00  0.00    +0.000 C 
ATOM      9  CA  UNL     1      14.258   5.454  24.345  0.00  0.00    +0.000 C 
ATOM     10  C   UNL     1      14.026   6.885  23.773  0.00  0.00    +0.000 C 
ATOM     11  CA  UNL     1      16.138   7.765  22.698  0.00  0.00    +0.000 C 
ATOM     12  C   UNL     1      17.368   7.364  22.304  0.00  0.00    +0.000 C 
ATOM     13  C   UNL     1      17.910   5.957  22.539  0.00  0.00    +0.000 C 
BRANCH  11  16
ATOM     14  O   UNL     1      15.236   9.203  21.077  0.00  0.00    +0.000 OA
ATOM     15  OXT UNL     1      15.625  10.004  23.184  0.00  0.00    +0.000 OA
ATOM     16  C   UNL     1      15.612   9.132  22.276  0.00  0.00    +0.000 C 
ENDBRANCH  11  16
BRANCH  12  17
ATOM     17  C   UNL     1      18.356   8.242  21.575  0.00  0.00    +0.000 C 
BRANCH  17  18
ATOM     18  S   UNL     1      18.995   7.360  20.142  0.00  0.00    +0.000 S 
BRANCH  18  20
ATOM     19  N   UNL     1      23.389   8.420  20.274  0.00  0.00    +0.000 N 
ATOM     20  C   UNL     1      20.736   7.781  20.195  0.00  0.00    +0.000 A 
ATOM     21  C   UNL     1      21.682   6.798  20.475  0.00  0.00    +0.000 A 
ATOM     22  C   UNL     1      21.145   9.089  19.955  0.00  0.00    +0.000 A 
ATOM     23  C   UNL     1      23.023   7.152  20.509  0.00  0.00    +0.000 A 
ATOM     24  C   UNL     1      22.500   9.385  20.003  0.00  0.00    +0.000 A 
BRANCH  19  25
ATOM     25  C   UNL     1      24.808   8.761  20.318  0.00  0.00    +0.000 C 
BRANCH  25  26
ATOM     26  C   UNL     1      25.115  10.058  19.580  0.00  0.00    +0.000 C 
BRANCH  26  27
ATOM     27  O   UNL     1      25.488  11.065  20.512  0.00  0.00    +0.000 OA
ATOM     28  H   UNL     1      19.770  12.608  27.488  0.00  0.00    +0.000 HD
ENDBRANCH  26  27
ENDBRANCH  25  26
ENDBRANCH  19  25
ENDBRANCH  18  20
ENDBRANCH  17  18
ENDBRANCH  12  17
ENDBRANCH   2   9
BRANCH   3  30
ATOM     29  N   UNL     1      11.539   2.110  23.053  0.00  0.00    +0.000 NA
ATOM     30  C   UNL     1      12.836   2.176  23.035  0.00  0.00    +0.000 C 
BRANCH  30  34
ATOM     31  S   UNL     1      14.610  -0.554  20.740  0.00  0.00    +0.000 S 
ATOM     32  N   UNL     1      14.503   1.988  21.197  0.00  0.00    +0.000 NA
ATOM     33  N   UNL     1      15.995   1.337  19.482  0.00  0.00    +0.000 N 
ATOM     34  C   UNL     1      13.627   1.370  22.067  0.00  0.00    +0.000 A 
ATOM     35  C   UNL     1      13.547  -0.004  21.968  0.00  0.00    +0.000 A 
ATOM     36  C   UNL     1      15.076   1.072  20.449  0.00  0.00    +0.000 A 
ATOM     37  H   UNL     1      10.736   4.164  27.537  0.00  0.00    +0.000 HD
ATOM     38  H   UNL     1      10.736   4.164  27.537  0.00  0.00    +0.000 HD
ENDBRANCH  30  34
BRANCH  29  39
ATOM     39  O   UNL     1      10.989   2.951  24.031  0.00  0.00    +0.000 OA
BRANCH  39  40
ATOM     40  C   UNL     1      10.246   3.965  23.375  0.00  0.00    +0.000 C 
BRANCH  40  43
ATOM     41  O   UNL     1       6.185   1.873  24.985  0.00  0.00    +0.000 OA
ATOM     42  N   UNL     1       8.124   3.959  22.164  0.00  0.00    +0.000 N 
ATOM     43  C   UNL     1       8.816   3.571  23.292  0.00  0.00    +0.000 A 
ATOM     44  C   UNL     1       8.215   2.869  24.271  0.00  0.00    +0.000 A 
ATOM     45  C   UNL     1       6.771   2.511  24.119  0.00  0.00    +0.000 A 
ATOM     46  C   UNL     1       6.804   3.653  21.982  0.00  0.00    +0.000 A 
ATOM     47  C   UNL     1       6.079   2.961  22.872  0.00  0.00    +0.000 A 
ATOM     48  H   UNL     1       6.849   5.975  22.526  0.00  0.00    +0.000 HD
BRANCH  47  49
ATOM     49  O   UNL     1       4.753   2.659  22.678  0.00  0.00    +0.000 OA
ATOM     50  H   UNL     1       6.849   5.975  22.526  0.00  0.00    +0.000 HD
ENDBRANCH  47  49
ENDBRANCH  40  43
ENDBRANCH  39  40
ENDBRANCH  29  39
ENDBRANCH   3  30
TORSDOF 14
ENDMDL
