MODEL 1
REMARK minimizedAffinity -8.19220829
REMARK minimizedRMSD -1
REMARK  Name = 54481001
REMARK  13 active torsions:
REMARK  status: ('A' for Active; 'I' for Inactive)
REMARK    1  A    between atoms: S_2  and  C_28
REMARK    2  A    between atoms: S_2  and  C_33
REMARK    3  A    between atoms: O_4  and  N_13
REMARK    4  A    between atoms: O_4  and  C_17
REMARK    5  A    between atoms: O_6  and  C_25
REMARK    6  A    between atoms: O_8  and  C_30
REMARK    7  A    between atoms: N_12  and  CA_22
REMARK    8  A    between atoms: N_15  and  C_40
REMARK    9  A    between atoms: C_17  and  C_25
REMARK   10  A    between atoms: CA_24  and  C_30
REMARK   11  A    between atoms: C_26  and  C_28
REMARK   12  A    between atoms: C_29  and  C_31
REMARK   13  A    between atoms: C_31  and  C_32
REMARK                            x       y       z     vdW  Elec       q    Type
REMARK                         _______ _______ _______ _____ _____    ______ ____
ROOT
ATOM      1  O   UNL     1      15.632   9.403  22.816  0.00  0.00    +0.000 OA
ATOM      2  N   UNL     1      15.650   7.083  23.171  0.00  0.00    +0.000 N 
ATOM      3  C   UNL     1      15.993   8.269  22.544  0.00  0.00    +0.000 C 
ATOM      4  H   UNL     1      14.839   6.177  23.191  0.00  0.00    +0.000 HD
ENDROOT
BRANCH   2   9
ATOM      5  S   UNL     1      12.856   6.065  22.419  0.00  0.00    +0.000 S 
ATOM      6  O   UNL     1      15.831   5.332  25.915  0.00  0.00    +0.000 OA
ATOM      7  N   UNL     1      13.757   5.295  24.794  0.00  0.00    +0.000 N 
ATOM      8  C   UNL     1      13.314   6.498  24.112  0.00  0.00    +0.000 C 
ATOM      9  CA  UNL     1      14.749   7.028  24.321  0.00  0.00    +0.000 C 
ATOM     10  C   UNL     1      14.952   5.769  25.210  0.00  0.00    +0.000 C 
ATOM     11  CA  UNL     1      13.023   4.154  24.864  0.00  0.00    +0.000 C 
ATOM     12  C   UNL     1      11.955   3.950  24.059  0.00  0.00    +0.000 C 
ATOM     13  C   UNL     1      11.541   4.916  22.950  0.00  0.00    +0.000 C 
BRANCH  11  15
ATOM     14  OXT UNL     1      14.276   2.247  25.530  0.00  0.00    +0.000 OA
ATOM     15  C   UNL     1      13.483   3.123  25.807  0.00  0.00    +0.000 C 
BRANCH  15  16
ATOM     16  O   UNL     1      12.886   3.313  27.001  0.00  0.00    +0.000 OA
ATOM     17  H   UNL     1      14.519   6.876  24.168  0.00  0.00    +0.000 HD
ENDBRANCH  15  16
ENDBRANCH  11  15
BRANCH  12  18
ATOM     18  C   UNL     1      11.044   2.748  24.130  0.00  0.00    +0.000 C 
BRANCH  18  19
ATOM     19  S   UNL     1      10.701   2.159  22.464  0.00  0.00    +0.000 S 
BRANCH  19  21
ATOM     20  N   UNL     1       6.188   2.396  22.298  0.00  0.00    +0.000 N 
ATOM     21  C   UNL     1       8.912   2.252  22.400  0.00  0.00    +0.000 A 
ATOM     22  C   UNL     1       8.141   1.149  22.757  0.00  0.00    +0.000 A 
ATOM     23  C   UNL     1       8.292   3.428  21.991  0.00  0.00    +0.000 A 
ATOM     24  C   UNL     1       6.759   1.251  22.696  0.00  0.00    +0.000 A 
ATOM     25  C   UNL     1       6.905   3.472  21.949  0.00  0.00    +0.000 A 
ATOM     26  C   UNL     1       4.730   2.473  22.244  0.00  0.00    +0.000 C 
ENDBRANCH  19  21
ENDBRANCH  18  19
ENDBRANCH  12  18
ENDBRANCH   2   9
BRANCH   3  28
ATOM     27  N   UNL     1      16.981   8.954  20.428  0.00  0.00    +0.000 NA
ATOM     28  C   UNL     1      16.929   8.073  21.382  0.00  0.00    +0.000 C 
BRANCH  28  32
ATOM     29  S   UNL     1      19.715   5.241  21.671  0.00  0.00    +0.000 S 
ATOM     30  N   UNL     1      17.361   5.714  20.715  0.00  0.00    +0.000 NA
ATOM     31  N   UNL     1      18.193   3.539  20.307  0.00  0.00    +0.000 N 
ATOM     32  C   UNL     1      17.793   6.863  21.350  0.00  0.00    +0.000 A 
ATOM     33  C   UNL     1      19.044   6.798  21.927  0.00  0.00    +0.000 A 
ATOM     34  C   UNL     1      18.294   4.794  20.822  0.00  0.00    +0.000 A 
ATOM     35  H   UNL     1      18.641  10.038  19.272  0.00  0.00    +0.000 HD
ATOM     36  H   UNL     1      18.641  10.038  19.272  0.00  0.00    +0.000 HD
ENDBRANCH  28  32
BRANCH  27  37
ATOM     37  O   UNL     1      17.913   8.599  19.444  0.00  0.00    +0.000 OA
BRANCH  37  38
ATOM     38  C   UNL     1      18.704   9.763  19.145  0.00  0.00    +0.000 C 
ATOM     39  C   UNL     1      20.039   9.456  18.432  0.00  0.00    +0.000 C 
ATOM     40  C   UNL     1      19.545  10.278  20.331  0.00  0.00    +0.000 C 
ATOM     41  C   UNL     1      20.675   9.353  19.833  0.00  0.00    +0.000 C 
BRANCH  38  43
ATOM     42  O   UNL     1      17.092  10.643  17.476  0.00  0.00    +0.000 OA
ATOM     43  C   UNL     1      17.814  10.831  18.451  0.00  0.00    +0.000 C 
BRANCH  43  44
ATOM     44  O   UNL     1      17.909  12.050  19.049  0.00  0.00    +0.000 OA
ATOM     45  H   UNL     1      12.957   9.038  21.575  0.00  0.00    +0.000 HD
ENDBRANCH  43  44
ENDBRANCH  38  43
ENDBRANCH  37  38
ENDBRANCH  27  37
ENDBRANCH   3  28
TORSDOF 12
ENDMDL
MODEL 2
REMARK minimizedAffinity -7.97386169
REMARK minimizedRMSD -1
REMARK  Name = 54481001
REMARK  13 active torsions:
REMARK  status: ('A' for Active; 'I' for Inactive)
REMARK    1  A    between atoms: S_2  and  C_28
REMARK    2  A    between atoms: S_2  and  C_33
REMARK    3  A    between atoms: O_4  and  N_13
REMARK    4  A    between atoms: O_4  and  C_17
REMARK    5  A    between atoms: O_6  and  C_25
REMARK    6  A    between atoms: O_8  and  C_30
REMARK    7  A    between atoms: N_12  and  CA_22
REMARK    8  A    between atoms: N_15  and  C_40
REMARK    9  A    between atoms: C_17  and  C_25
REMARK   10  A    between atoms: CA_24  and  C_30
REMARK   11  A    between atoms: C_26  and  C_28
REMARK   12  A    between atoms: C_29  and  C_31
REMARK   13  A    between atoms: C_31  and  C_32
REMARK                            x       y       z     vdW  Elec       q    Type
REMARK                         _______ _______ _______ _____ _____    ______ ____
ROOT
ATOM      1  O   UNL     1      12.725   4.016  25.638  0.00  0.00    +0.000 OA
ATOM      2  N   UNL     1      12.947   5.560  23.885  0.00  0.00    +0.000 N 
ATOM      3  C   UNL     1      12.504   4.402  24.502  0.00  0.00    +0.000 C 
ATOM      4  H   UNL     1      13.852   6.046  23.233  0.00  0.00    +0.000 HD
ENDROOT
BRANCH   2   9
ATOM      5  S   UNL     1      15.917   5.205  23.203  0.00  0.00    +0.000 S 
ATOM      6  O   UNL     1      13.016   8.811  23.649  0.00  0.00    +0.000 OA
ATOM      7  N   UNL     1      15.098   7.713  23.493  0.00  0.00    +0.000 N 
ATOM      8  C   UNL     1      15.315   6.518  24.288  0.00  0.00    +0.000 C 
ATOM      9  CA  UNL     1      13.794   6.541  24.560  0.00  0.00    +0.000 C 
ATOM     10  C   UNL     1      13.816   7.930  23.863  0.00  0.00    +0.000 C 
ATOM     11  CA  UNL     1      16.043   8.268  22.691  0.00  0.00    +0.000 C 
ATOM     12  C   UNL     1      17.162   7.590  22.343  0.00  0.00    +0.000 C 
ATOM     13  C   UNL     1      17.415   6.133  22.727  0.00  0.00    +0.000 C 
BRANCH  11  15
ATOM     14  OXT UNL     1      16.002  10.644  22.760  0.00  0.00    +0.000 OA
ATOM     15  C   UNL     1      15.765   9.613  22.164  0.00  0.00    +0.000 C 
BRANCH  15  16
ATOM     16  O   UNL     1      15.213   9.507  20.939  0.00  0.00    +0.000 OA
ATOM     17  H   UNL     1      18.826   6.728  22.558  0.00  0.00    +0.000 HD
ENDBRANCH  15  16
ENDBRANCH  11  15
BRANCH  12  18
ATOM     18  C   UNL     1      18.294   8.163  21.525  0.00  0.00    +0.000 C 
BRANCH  18  19
ATOM     19  S   UNL     1      18.071   7.710  19.797  0.00  0.00    +0.000 S 
BRANCH  19  21
ATOM     20  N   UNL     1      22.158   8.585  18.072  0.00  0.00    +0.000 N 
ATOM     21  C   UNL     1      19.690   8.057  19.112  0.00  0.00    +0.000 A 
ATOM     22  C   UNL     1      19.974   7.731  17.789  0.00  0.00    +0.000 A 
ATOM     23  C   UNL     1      20.667   8.653  19.904  0.00  0.00    +0.000 A 
ATOM     24  C   UNL     1      21.236   8.011  17.287  0.00  0.00    +0.000 A 
ATOM     25  C   UNL     1      21.912   8.909  19.348  0.00  0.00    +0.000 A 
ATOM     26  C   UNL     1      23.479   8.868  17.516  0.00  0.00    +0.000 C 
ENDBRANCH  19  21
ENDBRANCH  18  19
ENDBRANCH  12  18
ENDBRANCH   2   9
BRANCH   3  28
ATOM     27  N   UNL     1      10.412   3.868  23.377  0.00  0.00    +0.000 NA
ATOM     28  C   UNL     1      11.650   3.545  23.605  0.00  0.00    +0.000 C 
BRANCH  28  32
ATOM     29  S   UNL     1      12.957  -0.053  22.507  0.00  0.00    +0.000 S 
ATOM     30  N   UNL     1      12.982   2.437  21.817  0.00  0.00    +0.000 NA
ATOM     31  N   UNL     1      14.156   0.982  20.371  0.00  0.00    +0.000 N 
ATOM     32  C   UNL     1      12.249   2.334  22.985  0.00  0.00    +0.000 A 
ATOM     33  C   UNL     1      12.125   1.064  23.508  0.00  0.00    +0.000 A 
ATOM     34  C   UNL     1      13.403   1.241  21.474  0.00  0.00    +0.000 A 
ATOM     35  H   UNL     1      13.630   3.835  26.294  0.00  0.00    +0.000 HD
ATOM     36  H   UNL     1      13.630   3.835  26.294  0.00  0.00    +0.000 HD
ENDBRANCH  28  32
BRANCH  27  37
ATOM     37  O   UNL     1       9.787   2.956  22.517  0.00  0.00    +0.000 OA
BRANCH  37  38
ATOM     38  C   UNL     1       8.444   2.753  22.989  0.00  0.00    +0.000 C 
ATOM     39  C   UNL     1       8.341   2.456  24.500  0.00  0.00    +0.000 C 
ATOM     40  C   UNL     1       7.896   1.331  22.749  0.00  0.00    +0.000 C 
ATOM     41  C   UNL     1       8.464   0.962  24.136  0.00  0.00    +0.000 C 
BRANCH  38  43
ATOM     42  O   UNL     1       7.507   5.051  22.921  0.00  0.00    +0.000 OA
ATOM     43  C   UNL     1       7.535   3.906  22.477  0.00  0.00    +0.000 C 
BRANCH  43  44
ATOM     44  O   UNL     1       6.738   3.516  21.445  0.00  0.00    +0.000 OA
ATOM     45  H   UNL     1      11.976   6.067  18.987  0.00  0.00    +0.000 HD
ENDBRANCH  43  44
ENDBRANCH  38  43
ENDBRANCH  37  38
ENDBRANCH  27  37
ENDBRANCH   3  28
TORSDOF 12
ENDMDL
MODEL 3
REMARK minimizedAffinity -7.85766268
REMARK minimizedRMSD -1
REMARK  Name = 54481001
REMARK  13 active torsions:
REMARK  status: ('A' for Active; 'I' for Inactive)
REMARK    1  A    between atoms: S_2  and  C_28
REMARK    2  A    between atoms: S_2  and  C_33
REMARK    3  A    between atoms: O_4  and  N_13
REMARK    4  A    between atoms: O_4  and  C_17
REMARK    5  A    between atoms: O_6  and  C_25
REMARK    6  A    between atoms: O_8  and  C_30
REMARK    7  A    between atoms: N_12  and  CA_22
REMARK    8  A    between atoms: N_15  and  C_40
REMARK    9  A    between atoms: C_17  and  C_25
REMARK   10  A    between atoms: CA_24  and  C_30
REMARK   11  A    between atoms: C_26  and  C_28
REMARK   12  A    between atoms: C_29  and  C_31
REMARK   13  A    between atoms: C_31  and  C_32
REMARK                            x       y       z     vdW  Elec       q    Type
REMARK                         _______ _______ _______ _____ _____    ______ ____
ROOT
ATOM      1  O   UNL     1      12.763   3.594  26.060  0.00  0.00    +0.000 OA
ATOM      2  N   UNL     1      13.363   4.460  23.961  0.00  0.00    +0.000 N 
ATOM      3  C   UNL     1      12.630   3.691  24.850  0.00  0.00    +0.000 C 
ATOM      4  H   UNL     1      14.350   4.474  23.251  0.00  0.00    +0.000 HD
ENDROOT
BRANCH   2   9
ATOM      5  S   UNL     1      15.250   5.160  21.646  0.00  0.00    +0.000 S 
ATOM      6  O   UNL     1      13.344   7.476  25.199  0.00  0.00    +0.000 OA
ATOM      7  N   UNL     1      14.848   7.091  23.423  0.00  0.00    +0.000 N 
ATOM      8  C   UNL     1      15.486   5.791  23.323  0.00  0.00    +0.000 C 
ATOM      9  CA  UNL     1      14.469   5.317  24.384  0.00  0.00    +0.000 C 
ATOM     10  C   UNL     1      14.082   6.818  24.503  0.00  0.00    +0.000 C 
ATOM     11  CA  UNL     1      15.100   8.122  22.576  0.00  0.00    +0.000 C 
ATOM     12  C   UNL     1      15.741   7.931  21.400  0.00  0.00    +0.000 C 
ATOM     13  C   UNL     1      16.144   6.553  20.877  0.00  0.00    +0.000 C 
BRANCH  11  15
ATOM     14  OXT UNL     1      15.262  10.330  23.443  0.00  0.00    +0.000 OA
ATOM     15  C   UNL     1      14.584   9.444  22.964  0.00  0.00    +0.000 C 
BRANCH  15  16
ATOM     16  O   UNL     1      13.262   9.501  22.706  0.00  0.00    +0.000 OA
ATOM     17  H   UNL     1      16.520   7.384  19.825  0.00  0.00    +0.000 HD
ENDBRANCH  15  16
ENDBRANCH  11  15
BRANCH  12  18
ATOM     18  C   UNL     1      16.128   9.034  20.444  0.00  0.00    +0.000 C 
BRANCH  18  19
ATOM     19  S   UNL     1      17.752   9.668  20.890  0.00  0.00    +0.000 S 
BRANCH  19  21
ATOM     20  N   UNL     1      20.244   8.456  17.316  0.00  0.00    +0.000 N 
ATOM     21  C   UNL     1      18.739   9.186  19.473  0.00  0.00    +0.000 A 
ATOM     22  C   UNL     1      19.312   7.918  19.419  0.00  0.00    +0.000 A 
ATOM     23  C   UNL     1      18.934  10.080  18.426  0.00  0.00    +0.000 A 
ATOM     24  C   UNL     1      20.071   7.574  18.311  0.00  0.00    +0.000 A 
ATOM     25  C   UNL     1      19.704   9.681  17.341  0.00  0.00    +0.000 A 
ATOM     26  C   UNL     1      21.048   8.065  16.161  0.00  0.00    +0.000 C 
ENDBRANCH  19  21
ENDBRANCH  18  19
ENDBRANCH  12  18
ENDBRANCH   2   9
BRANCH   3  28
ATOM     27  N   UNL     1      10.309   3.281  24.240  0.00  0.00    +0.000 NA
ATOM     28  C   UNL     1      11.546   2.888  24.180  0.00  0.00    +0.000 C 
BRANCH  28  32
ATOM     29  S   UNL     1      12.232  -0.778  22.784  0.00  0.00    +0.000 S 
ATOM     30  N   UNL     1      12.584   1.724  22.240  0.00  0.00    +0.000 NA
ATOM     31  N   UNL     1      13.436   0.216  20.630  0.00  0.00    +0.000 N 
ATOM     32  C   UNL     1      11.918   1.648  23.449  0.00  0.00    +0.000 A 
ATOM     33  C   UNL     1      11.640   0.376  23.905  0.00  0.00    +0.000 A 
ATOM     34  C   UNL     1      12.801   0.505  21.798  0.00  0.00    +0.000 A 
ATOM     35  H   UNL     1      13.712   2.705  26.733  0.00  0.00    +0.000 HD
ATOM     36  H   UNL     1      13.712   2.705  26.733  0.00  0.00    +0.000 HD
ENDBRANCH  28  32
BRANCH  27  37
ATOM     37  O   UNL     1       9.454   2.409  23.554  0.00  0.00    +0.000 OA
BRANCH  37  38
ATOM     38  C   UNL     1       8.124   2.953  23.619  0.00  0.00    +0.000 C 
ATOM     39  C   UNL     1       7.222   2.568  22.426  0.00  0.00    +0.000 C 
ATOM     40  C   UNL     1       8.012   4.412  23.133  0.00  0.00    +0.000 C 
ATOM     41  C   UNL     1       7.736   3.843  21.726  0.00  0.00    +0.000 C 
BRANCH  38  43
ATOM     42  O   UNL     1       7.722   1.677  25.710  0.00  0.00    +0.000 OA
ATOM     43  C   UNL     1       7.518   2.674  25.023  0.00  0.00    +0.000 C 
BRANCH  43  44
ATOM     44  O   UNL     1       6.705   3.682  25.443  0.00  0.00    +0.000 OA
ATOM     45  H   UNL     1      12.487   4.774  27.756  0.00  0.00    +0.000 HD
ENDBRANCH  43  44
ENDBRANCH  38  43
ENDBRANCH  37  38
ENDBRANCH  27  37
ENDBRANCH   3  28
TORSDOF 12
ENDMDL
MODEL 4
REMARK minimizedAffinity -7.8575511
REMARK minimizedRMSD -1
REMARK  Name = 54481001
REMARK  13 active torsions:
REMARK  status: ('A' for Active; 'I' for Inactive)
REMARK    1  A    between atoms: S_2  and  C_28
REMARK    2  A    between atoms: S_2  and  C_33
REMARK    3  A    between atoms: O_4  and  N_13
REMARK    4  A    between atoms: O_4  and  C_17
REMARK    5  A    between atoms: O_6  and  C_25
REMARK    6  A    between atoms: O_8  and  C_30
REMARK    7  A    between atoms: N_12  and  CA_22
REMARK    8  A    between atoms: N_15  and  C_40
REMARK    9  A    between atoms: C_17  and  C_25
REMARK   10  A    between atoms: CA_24  and  C_30
REMARK   11  A    between atoms: C_26  and  C_28
REMARK   12  A    between atoms: C_29  and  C_31
REMARK   13  A    between atoms: C_31  and  C_32
REMARK                            x       y       z     vdW  Elec       q    Type
REMARK                         _______ _______ _______ _____ _____    ______ ____
ROOT
ATOM      1  O   UNL     1      17.937   9.656  21.570  0.00  0.00    +0.000 OA
ATOM      2  N   UNL     1      18.417   8.454  19.611  0.00  0.00    +0.000 N 
ATOM      3  C   UNL     1      17.751   8.733  20.793  0.00  0.00    +0.000 C 
ATOM      4  H   UNL     1      19.373   7.876  19.131  0.00  0.00    +0.000 HD
ENDROOT
BRANCH   2   9
ATOM      5  S   UNL     1      21.176   7.428  20.475  0.00  0.00    +0.000 S 
ATOM      6  O   UNL     1      19.329   9.099  16.549  0.00  0.00    +0.000 OA
ATOM      7  N   UNL     1      21.047   8.458  18.032  0.00  0.00    +0.000 N 
ATOM      8  C   UNL     1      20.960   8.878  19.419  0.00  0.00    +0.000 C 
ATOM      9  CA  UNL     1      19.505   9.287  19.102  0.00  0.00    +0.000 C 
ATOM     10  C   UNL     1      19.875   8.991  17.622  0.00  0.00    +0.000 C 
ATOM     11  CA  UNL     1      22.088   7.751  17.521  0.00  0.00    +0.000 C 
ATOM     12  C   UNL     1      22.983   7.130  18.325  0.00  0.00    +0.000 C 
ATOM     13  C   UNL     1      22.854   7.082  19.846  0.00  0.00    +0.000 C 
BRANCH  11  15
ATOM     14  OXT UNL     1      22.868   8.323  15.349  0.00  0.00    +0.000 OA
ATOM     15  C   UNL     1      22.161   7.635  16.057  0.00  0.00    +0.000 C 
BRANCH  15  16
ATOM     16  O   UNL     1      21.327   6.659  15.645  0.00  0.00    +0.000 OA
ATOM     17  H   UNL     1      24.070   6.411  19.621  0.00  0.00    +0.000 HD
ENDBRANCH  15  16
ENDBRANCH  11  15
BRANCH  12  18
ATOM     18  C   UNL     1      24.209   6.395  17.838  0.00  0.00    +0.000 C 
BRANCH  18  19
ATOM     19  S   UNL     1      24.112   4.671  18.347  0.00  0.00    +0.000 S 
BRANCH  19  21
ATOM     20  N   UNL     1      21.346   2.926  15.224  0.00  0.00    +0.000 N 
ATOM     21  C   UNL     1      23.015   3.981  17.110  0.00  0.00    +0.000 A 
ATOM     22  C   UNL     1      21.699   3.667  17.440  0.00  0.00    +0.000 A 
ATOM     23  C   UNL     1      23.478   3.756  15.817  0.00  0.00    +0.000 A 
ATOM     24  C   UNL     1      20.874   3.132  16.461  0.00  0.00    +0.000 A 
ATOM     25  C   UNL     1      22.607   3.220  14.879  0.00  0.00    +0.000 A 
ATOM     26  C   UNL     1      20.453   2.363  14.215  0.00  0.00    +0.000 C 
ENDBRANCH  19  21
ENDBRANCH  18  19
ENDBRANCH  12  18
ENDBRANCH   2   9
BRANCH   3  28
ATOM     27  N   UNL     1      15.483   8.134  21.445  0.00  0.00    +0.000 NA
ATOM     28  C   UNL     1      16.673   7.731  21.113  0.00  0.00    +0.000 C 
BRANCH  28  32
ATOM     29  S   UNL     1      17.583   3.889  21.633  0.00  0.00    +0.000 S 
ATOM     30  N   UNL     1      17.043   5.642  19.812  0.00  0.00    +0.000 NA
ATOM     31  N   UNL     1      17.476   3.460  19.010  0.00  0.00    +0.000 N 
ATOM     32  C   UNL     1      16.993   6.281  21.036  0.00  0.00    +0.000 A 
ATOM     33  C   UNL     1      17.257   5.495  22.138  0.00  0.00    +0.000 A 
ATOM     34  C   UNL     1      17.345   4.377  20.006  0.00  0.00    +0.000 A 
ATOM     35  H   UNL     1      19.687   8.927  21.966  0.00  0.00    +0.000 HD
ATOM     36  H   UNL     1      19.687   8.927  21.966  0.00  0.00    +0.000 HD
ENDBRANCH  28  32
BRANCH  27  37
ATOM     37  O   UNL     1      14.622   7.058  21.697  0.00  0.00    +0.000 OA
BRANCH  37  38
ATOM     38  C   UNL     1      13.797   7.407  22.823  0.00  0.00    +0.000 C 
ATOM     39  C   UNL     1      14.492   7.246  24.192  0.00  0.00    +0.000 C 
ATOM     40  C   UNL     1      12.830   6.292  23.269  0.00  0.00    +0.000 C 
ATOM     41  C   UNL     1      13.950   5.802  24.211  0.00  0.00    +0.000 C 
BRANCH  38  43
ATOM     42  O   UNL     1      12.337   9.059  21.683  0.00  0.00    +0.000 OA
ATOM     43  C   UNL     1      13.140   8.793  22.574  0.00  0.00    +0.000 C 
BRANCH  43  44
ATOM     44  O   UNL     1      13.550   9.729  23.473  0.00  0.00    +0.000 OA
ATOM     45  H   UNL     1       8.192   7.175  25.651  0.00  0.00    +0.000 HD
ENDBRANCH  43  44
ENDBRANCH  38  43
ENDBRANCH  37  38
ENDBRANCH  27  37
ENDBRANCH   3  28
TORSDOF 12
ENDMDL
MODEL 5
REMARK minimizedAffinity -7.81942701
REMARK minimizedRMSD -1
REMARK  Name = 54481001
REMARK  13 active torsions:
REMARK  status: ('A' for Active; 'I' for Inactive)
REMARK    1  A    between atoms: S_2  and  C_28
REMARK    2  A    between atoms: S_2  and  C_33
REMARK    3  A    between atoms: O_4  and  N_13
REMARK    4  A    between atoms: O_4  and  C_17
REMARK    5  A    between atoms: O_6  and  C_25
REMARK    6  A    between atoms: O_8  and  C_30
REMARK    7  A    between atoms: N_12  and  CA_22
REMARK    8  A    between atoms: N_15  and  C_40
REMARK    9  A    between atoms: C_17  and  C_25
REMARK   10  A    between atoms: CA_24  and  C_30
REMARK   11  A    between atoms: C_26  and  C_28
REMARK   12  A    between atoms: C_29  and  C_31
REMARK   13  A    between atoms: C_31  and  C_32
REMARK                            x       y       z     vdW  Elec       q    Type
REMARK                         _______ _______ _______ _____ _____    ______ ____
ROOT
ATOM      1  O   UNL     1      23.165   8.162  15.954  0.00  0.00    +0.000 OA
ATOM      2  N   UNL     1      22.130   8.529  18.029  0.00  0.00    +0.000 N 
ATOM      3  C   UNL     1      23.181   8.498  17.128  0.00  0.00    +0.000 C 
ATOM      4  H   UNL     1      21.513   7.872  18.846  0.00  0.00    +0.000 HD
ENDROOT
BRANCH   2   9
ATOM      5  S   UNL     1      20.465   7.709  20.472  0.00  0.00    +0.000 S 
ATOM      6  O   UNL     1      19.731  10.250  16.649  0.00  0.00    +0.000 OA
ATOM      7  N   UNL     1      19.150   9.017  18.573  0.00  0.00    +0.000 N 
ATOM      8  C   UNL     1      19.792   7.734  18.796  0.00  0.00    +0.000 C 
ATOM      9  CA  UNL     1      20.769   8.136  17.669  0.00  0.00    +0.000 C 
ATOM     10  C   UNL     1      19.814   9.342  17.442  0.00  0.00    +0.000 C 
ATOM     11  CA  UNL     1      18.195   9.534  19.388  0.00  0.00    +0.000 C 
ATOM     12  C   UNL     1      17.976   9.035  20.627  0.00  0.00    +0.000 C 
ATOM     13  C   UNL     1      18.830   7.933  21.252  0.00  0.00    +0.000 C 
BRANCH  11  15
ATOM     14  OXT UNL     1      16.395  10.644  18.302  0.00  0.00    +0.000 OA
ATOM     15  C   UNL     1      17.456  10.704  18.890  0.00  0.00    +0.000 C 
BRANCH  15  16
ATOM     16  O   UNL     1      18.141  11.825  19.188  0.00  0.00    +0.000 OA
ATOM     17  H   UNL     1      17.701   8.025  22.147  0.00  0.00    +0.000 HD
ENDBRANCH  15  16
ENDBRANCH  11  15
BRANCH  12  18
ATOM     18  C   UNL     1      16.883   9.501  21.560  0.00  0.00    +0.000 C 
BRANCH  18  19
ATOM     19  S   UNL     1      15.323   8.746  21.075  0.00  0.00    +0.000 S 
BRANCH  19  21
ATOM     20  N   UNL     1      14.084   6.650  24.886  0.00  0.00    +0.000 N 
ATOM     21  C   UNL     1      14.830   7.915  22.585  0.00  0.00    +0.000 A 
ATOM     22  C   UNL     1      13.599   8.199  23.169  0.00  0.00    +0.000 A 
ATOM     23  C   UNL     1      15.680   6.985  23.176  0.00  0.00    +0.000 A 
ATOM     24  C   UNL     1      13.246   7.541  24.338  0.00  0.00    +0.000 A 
ATOM     25  C   UNL     1      15.273   6.357  24.345  0.00  0.00    +0.000 A 
ATOM     26  C   UNL     1      13.684   5.973  26.117  0.00  0.00    +0.000 C 
ENDBRANCH  19  21
ENDBRANCH  18  19
ENDBRANCH  12  18
ENDBRANCH   2   9
BRANCH   3  28
ATOM     27  N   UNL     1      24.505   9.567  18.868  0.00  0.00    +0.000 NA
ATOM     28  C   UNL     1      24.488   8.941  17.730  0.00  0.00    +0.000 C 
BRANCH  28  32
ATOM     29  S   UNL     1      27.826   8.838  15.559  0.00  0.00    +0.000 S 
ATOM     30  N   UNL     1      26.322   7.388  17.080  0.00  0.00    +0.000 NA
ATOM     31  N   UNL     1      28.228   6.292  16.213  0.00  0.00    +0.000 N 
ATOM     32  C   UNL     1      25.752   8.645  17.004  0.00  0.00    +0.000 A 
ATOM     33  C   UNL     1      26.423   9.564  16.226  0.00  0.00    +0.000 A 
ATOM     34  C   UNL     1      27.419   7.375  16.357  0.00  0.00    +0.000 A 
ATOM     35  H   UNL     1      22.382   9.147  15.130  0.00  0.00    +0.000 HD
ATOM     36  H   UNL     1      22.382   9.147  15.130  0.00  0.00    +0.000 HD
ENDBRANCH  28  32
BRANCH  27  37
ATOM     37  O   UNL     1      25.810   9.890  19.264  0.00  0.00    +0.000 OA
BRANCH  37  38
ATOM     38  C   UNL     1      25.921   9.628  20.674  0.00  0.00    +0.000 C 
ATOM     39  C   UNL     1      27.074   8.676  21.054  0.00  0.00    +0.000 C 
ATOM     40  C   UNL     1      24.956   8.543  21.195  0.00  0.00    +0.000 C 
ATOM     41  C   UNL     1      26.068   7.517  20.893  0.00  0.00    +0.000 C 
BRANCH  38  43
ATOM     42  O   UNL     1      26.863  11.664  21.737  0.00  0.00    +0.000 OA
ATOM     43  C   UNL     1      25.889  10.972  21.455  0.00  0.00    +0.000 C 
BRANCH  43  44
ATOM     44  O   UNL     1      24.625  11.331  21.812  0.00  0.00    +0.000 OA
ATOM     45  H   UNL     1      25.948  14.144  16.306  0.00  0.00    +0.000 HD
ENDBRANCH  43  44
ENDBRANCH  38  43
ENDBRANCH  37  38
ENDBRANCH  27  37
ENDBRANCH   3  28
TORSDOF 12
ENDMDL
MODEL 6
REMARK minimizedAffinity -7.54840851
REMARK minimizedRMSD -1
REMARK  Name = 54481001
REMARK  13 active torsions:
REMARK  status: ('A' for Active; 'I' for Inactive)
REMARK    1  A    between atoms: S_2  and  C_28
REMARK    2  A    between atoms: S_2  and  C_33
REMARK    3  A    between atoms: O_4  and  N_13
REMARK    4  A    between atoms: O_4  and  C_17
REMARK    5  A    between atoms: O_6  and  C_25
REMARK    6  A    between atoms: O_8  and  C_30
REMARK    7  A    between atoms: N_12  and  CA_22
REMARK    8  A    between atoms: N_15  and  C_40
REMARK    9  A    between atoms: C_17  and  C_25
REMARK   10  A    between atoms: CA_24  and  C_30
REMARK   11  A    between atoms: C_26  and  C_28
REMARK   12  A    between atoms: C_29  and  C_31
REMARK   13  A    between atoms: C_31  and  C_32
REMARK                            x       y       z     vdW  Elec       q    Type
REMARK                         _______ _______ _______ _____ _____    ______ ____
ROOT
ATOM      1  O   UNL     1      16.317   9.640  19.657  0.00  0.00    +0.000 OA
ATOM      2  N   UNL     1      18.034   8.091  19.254  0.00  0.00    +0.000 N 
ATOM      3  C   UNL     1      16.878   8.572  19.845  0.00  0.00    +0.000 C 
ATOM      4  H   UNL     1      19.247   8.061  19.342  0.00  0.00    +0.000 HD
ENDROOT
BRANCH   2   9
ATOM      5  S   UNL     1      20.679   9.177  20.366  0.00  0.00    +0.000 S 
ATOM      6  O   UNL     1      19.318   7.151  16.409  0.00  0.00    +0.000 OA
ATOM      7  N   UNL     1      20.740   8.379  17.835  0.00  0.00    +0.000 N 
ATOM      8  C   UNL     1      20.163   9.430  18.654  0.00  0.00    +0.000 C 
ATOM      9  CA  UNL     1      18.787   8.850  18.258  0.00  0.00    +0.000 C 
ATOM     10  C   UNL     1      19.588   7.957  17.269  0.00  0.00    +0.000 C 
ATOM     11  CA  UNL     1      22.066   8.086  17.808  0.00  0.00    +0.000 C 
ATOM     12  C   UNL     1      22.913   8.552  18.755  0.00  0.00    +0.000 C 
ATOM     13  C   UNL     1      22.454   9.349  19.974  0.00  0.00    +0.000 C 
BRANCH  11  15
ATOM     14  OXT UNL     1      22.726   5.996  16.886  0.00  0.00    +0.000 OA
ATOM     15  C   UNL     1      22.527   7.185  16.740  0.00  0.00    +0.000 C 
BRANCH  15  16
ATOM     16  O   UNL     1      22.689   7.888  15.602  0.00  0.00    +0.000 OA
ATOM     17  H   UNL     1      19.051   8.541  18.721  0.00  0.00    +0.000 HD
ENDBRANCH  15  16
ENDBRANCH  11  15
BRANCH  12  18
ATOM     18  C   UNL     1      24.408   8.338  18.749  0.00  0.00    +0.000 C 
BRANCH  18  19
ATOM     19  S   UNL     1      25.231   9.862  19.240  0.00  0.00    +0.000 S 
BRANCH  19  21
ATOM     20  N   UNL     1      25.976   9.144  23.642  0.00  0.00    +0.000 N 
ATOM     21  C   UNL     1      25.528   9.577  20.984  0.00  0.00    +0.000 A 
ATOM     22  C   UNL     1      26.030   8.353  21.416  0.00  0.00    +0.000 A 
ATOM     23  C   UNL     1      25.253  10.579  21.909  0.00  0.00    +0.000 A 
ATOM     24  C   UNL     1      26.249   8.161  22.773  0.00  0.00    +0.000 A 
ATOM     25  C   UNL     1      25.492  10.331  23.254  0.00  0.00    +0.000 A 
ATOM     26  C   UNL     1      26.216   8.913  25.064  0.00  0.00    +0.000 C 
ENDBRANCH  19  21
ENDBRANCH  18  19
ENDBRANCH  12  18
ENDBRANCH   2   9
BRANCH   3  28
ATOM     27  N   UNL     1      15.437   8.039  21.733  0.00  0.00    +0.000 NA
ATOM     28  C   UNL     1      16.283   7.614  20.844  0.00  0.00    +0.000 C 
BRANCH  28  32
ATOM     29  S   UNL     1      16.727   3.693  20.305  0.00  0.00    +0.000 S 
ATOM     30  N   UNL     1      17.831   5.750  21.413  0.00  0.00    +0.000 NA
ATOM     31  N   UNL     1      18.987   3.709  21.707  0.00  0.00    +0.000 N 
ATOM     32  C   UNL     1      16.677   6.181  20.788  0.00  0.00    +0.000 A 
ATOM     33  C   UNL     1      15.947   5.211  20.135  0.00  0.00    +0.000 A 
ATOM     34  C   UNL     1      17.958   4.455  21.224  0.00  0.00    +0.000 A 
ATOM     35  H   UNL     1      13.648   7.392  22.904  0.00  0.00    +0.000 HD
ATOM     36  H   UNL     1      13.648   7.392  22.904  0.00  0.00    +0.000 HD
ENDBRANCH  28  32
BRANCH  27  37
ATOM     37  O   UNL     1      14.992   7.002  22.564  0.00  0.00    +0.000 OA
BRANCH  37  38
ATOM     38  C   UNL     1      13.640   7.298  22.956  0.00  0.00    +0.000 C 
ATOM     39  C   UNL     1      13.244   6.737  24.338  0.00  0.00    +0.000 C 
ATOM     40  C   UNL     1      12.584   6.351  22.352  0.00  0.00    +0.000 C 
ATOM     41  C   UNL     1      12.776   5.464  23.601  0.00  0.00    +0.000 C 
BRANCH  38  43
ATOM     42  O   UNL     1      13.847   9.729  23.414  0.00  0.00    +0.000 OA
ATOM     43  C   UNL     1      13.363   8.814  22.753  0.00  0.00    +0.000 C 
BRANCH  43  44
ATOM     44  O   UNL     1      12.496   9.048  21.729  0.00  0.00    +0.000 OA
ATOM     45  H   UNL     1      18.369   9.446  19.420  0.00  0.00    +0.000 HD
ENDBRANCH  43  44
ENDBRANCH  38  43
ENDBRANCH  37  38
ENDBRANCH  27  37
ENDBRANCH   3  28
TORSDOF 12
ENDMDL
MODEL 7
REMARK minimizedAffinity -7.47227859
REMARK minimizedRMSD -1
REMARK  Name = 54481001
REMARK  13 active torsions:
REMARK  status: ('A' for Active; 'I' for Inactive)
REMARK    1  A    between atoms: S_2  and  C_28
REMARK    2  A    between atoms: S_2  and  C_33
REMARK    3  A    between atoms: O_4  and  N_13
REMARK    4  A    between atoms: O_4  and  C_17
REMARK    5  A    between atoms: O_6  and  C_25
REMARK    6  A    between atoms: O_8  and  C_30
REMARK    7  A    between atoms: N_12  and  CA_22
REMARK    8  A    between atoms: N_15  and  C_40
REMARK    9  A    between atoms: C_17  and  C_25
REMARK   10  A    between atoms: CA_24  and  C_30
REMARK   11  A    between atoms: C_26  and  C_28
REMARK   12  A    between atoms: C_29  and  C_31
REMARK   13  A    between atoms: C_31  and  C_32
REMARK                            x       y       z     vdW  Elec       q    Type
REMARK                         _______ _______ _______ _____ _____    ______ ____
ROOT
ATOM      1  O   UNL     1      17.072   9.844  21.513  0.00  0.00    +0.000 OA
ATOM      2  N   UNL     1      18.682   8.199  21.051  0.00  0.00    +0.000 N 
ATOM      3  C   UNL     1      17.517   8.710  21.598  0.00  0.00    +0.000 C 
ATOM      4  H   UNL     1      19.872   8.038  21.241  0.00  0.00    +0.000 HD
ENDROOT
BRANCH   2   9
ATOM      5  S   UNL     1      21.384   6.815  20.609  0.00  0.00    +0.000 S 
ATOM      6  O   UNL     1      18.419   9.237  17.972  0.00  0.00    +0.000 OA
ATOM      7  N   UNL     1      20.467   8.225  18.556  0.00  0.00    +0.000 N 
ATOM      8  C   UNL     1      20.985   8.426  19.897  0.00  0.00    +0.000 C 
ATOM      9  CA  UNL     1      19.595   9.004  20.242  0.00  0.00    +0.000 C 
ATOM     10  C   UNL     1      19.316   8.915  18.715  0.00  0.00    +0.000 C 
ATOM     11  CA  UNL     1      21.118   7.520  17.594  0.00  0.00    +0.000 C 
ATOM     12  C   UNL     1      22.156   6.705  17.895  0.00  0.00    +0.000 C 
ATOM     13  C   UNL     1      22.621   6.429  19.324  0.00  0.00    +0.000 C 
BRANCH  11  15
ATOM     14  OXT UNL     1      20.713   8.618  15.525  0.00  0.00    +0.000 OA
ATOM     15  C   UNL     1      20.600   7.630  16.222  0.00  0.00    +0.000 C 
BRANCH  15  16
ATOM     16  O   UNL     1      19.993   6.477  15.880  0.00  0.00    +0.000 OA
ATOM     17  H   UNL     1      24.091   6.754  18.433  0.00  0.00    +0.000 HD
ENDBRANCH  15  16
ENDBRANCH  11  15
BRANCH  12  18
ATOM     18  C   UNL     1      22.979   5.953  16.877  0.00  0.00    +0.000 C 
BRANCH  18  19
ATOM     19  S   UNL     1      24.030   7.111  15.985  0.00  0.00    +0.000 S 
BRANCH  19  21
ATOM     20  N   UNL     1      26.655   8.725  19.294  0.00  0.00    +0.000 N 
ATOM     21  C   UNL     1      25.072   7.750  17.295  0.00  0.00    +0.000 A 
ATOM     22  C   UNL     1      26.087   6.961  17.828  0.00  0.00    +0.000 A 
ATOM     23  C   UNL     1      24.865   9.036  17.783  0.00  0.00    +0.000 A 
ATOM     24  C   UNL     1      26.877   7.482  18.842  0.00  0.00    +0.000 A 
ATOM     25  C   UNL     1      25.686   9.505  18.799  0.00  0.00    +0.000 A 
ATOM     26  C   UNL     1      27.503   9.247  20.363  0.00  0.00    +0.000 C 
ENDBRANCH  19  21
ENDBRANCH  18  19
ENDBRANCH  12  18
ENDBRANCH   2   9
BRANCH   3  28
ATOM     27  N   UNL     1      15.685   8.049  23.058  0.00  0.00    +0.000 NA
ATOM     28  C   UNL     1      16.744   7.693  22.396  0.00  0.00    +0.000 C 
BRANCH  28  32
ATOM     29  S   UNL     1      18.229   4.064  23.094  0.00  0.00    +0.000 S 
ATOM     30  N   UNL     1      17.017   5.475  21.300  0.00  0.00    +0.000 NA
ATOM     31  N   UNL     1      17.493   3.245  20.673  0.00  0.00    +0.000 N 
ATOM     32  C   UNL     1      17.211   6.281  22.405  0.00  0.00    +0.000 A 
ATOM     33  C   UNL     1      17.850   5.692  23.476  0.00  0.00    +0.000 A 
ATOM     34  C   UNL     1      17.515   4.284  21.551  0.00  0.00    +0.000 A 
ATOM     35  H   UNL     1      19.703   9.261  22.235  0.00  0.00    +0.000 HD
ATOM     36  H   UNL     1      19.703   9.261  22.235  0.00  0.00    +0.000 HD
ENDBRANCH  28  32
BRANCH  27  37
ATOM     37  O   UNL     1      15.102   6.965  23.728  0.00  0.00    +0.000 OA
BRANCH  37  38
ATOM     38  C   UNL     1      13.741   6.848  23.279  0.00  0.00    +0.000 C 
ATOM     39  C   UNL     1      12.951   5.700  23.944  0.00  0.00    +0.000 C 
ATOM     40  C   UNL     1      13.577   6.086  21.948  0.00  0.00    +0.000 C 
ATOM     41  C   UNL     1      13.436   4.800  22.789  0.00  0.00    +0.000 C 
BRANCH  38  43
ATOM     42  O   UNL     1      12.708   8.910  22.363  0.00  0.00    +0.000 OA
ATOM     43  C   UNL     1      13.055   8.241  23.333  0.00  0.00    +0.000 C 
BRANCH  43  44
ATOM     44  O   UNL     1      12.863   8.673  24.609  0.00  0.00    +0.000 OA
ATOM     45  H   UNL     1       7.580   5.743  22.744  0.00  0.00    +0.000 HD
ENDBRANCH  43  44
ENDBRANCH  38  43
ENDBRANCH  37  38
ENDBRANCH  27  37
ENDBRANCH   3  28
TORSDOF 12
ENDMDL
MODEL 8
REMARK minimizedAffinity -7.38259649
REMARK minimizedRMSD -1
REMARK  Name = 54481001
REMARK  13 active torsions:
REMARK  status: ('A' for Active; 'I' for Inactive)
REMARK    1  A    between atoms: S_2  and  C_28
REMARK    2  A    between atoms: S_2  and  C_33
REMARK    3  A    between atoms: O_4  and  N_13
REMARK    4  A    between atoms: O_4  and  C_17
REMARK    5  A    between atoms: O_6  and  C_25
REMARK    6  A    between atoms: O_8  and  C_30
REMARK    7  A    between atoms: N_12  and  CA_22
REMARK    8  A    between atoms: N_15  and  C_40
REMARK    9  A    between atoms: C_17  and  C_25
REMARK   10  A    between atoms: CA_24  and  C_30
REMARK   11  A    between atoms: C_26  and  C_28
REMARK   12  A    between atoms: C_29  and  C_31
REMARK   13  A    between atoms: C_31  and  C_32
REMARK                            x       y       z     vdW  Elec       q    Type
REMARK                         _______ _______ _______ _____ _____    ______ ____
ROOT
ATOM      1  O   UNL     1      15.198   9.352  22.755  0.00  0.00    +0.000 OA
ATOM      2  N   UNL     1      15.481   7.063  23.193  0.00  0.00    +0.000 N 
ATOM      3  C   UNL     1      15.668   8.252  22.509  0.00  0.00    +0.000 C 
ATOM      4  H   UNL     1      14.773   6.078  23.282  0.00  0.00    +0.000 HD
ENDROOT
BRANCH   2   9
ATOM      5  S   UNL     1      12.745   5.814  22.585  0.00  0.00    +0.000 S 
ATOM      6  O   UNL     1      15.920   5.386  25.954  0.00  0.00    +0.000 OA
ATOM      7  N   UNL     1      13.808   5.164  24.929  0.00  0.00    +0.000 N 
ATOM      8  C   UNL     1      13.242   6.315  24.248  0.00  0.00    +0.000 C 
ATOM      9  CA  UNL     1      14.638   6.960  24.383  0.00  0.00    +0.000 C 
ATOM     10  C   UNL     1      14.979   5.739  25.283  0.00  0.00    +0.000 C 
ATOM     11  CA  UNL     1      13.171   3.971  25.050  0.00  0.00    +0.000 C 
ATOM     12  C   UNL     1      12.088   3.668  24.298  0.00  0.00    +0.000 C 
ATOM     13  C   UNL     1      11.551   4.576  23.193  0.00  0.00    +0.000 C 
BRANCH  11  15
ATOM     14  OXT UNL     1      14.578   2.162  25.684  0.00  0.00    +0.000 OA
ATOM     15  C   UNL     1      13.752   2.998  25.989  0.00  0.00    +0.000 C 
BRANCH  15  16
ATOM     16  O   UNL     1      13.222   3.188  27.213  0.00  0.00    +0.000 OA
ATOM     17  H   UNL     1      14.450   6.754  24.186  0.00  0.00    +0.000 HD
ENDBRANCH  15  16
ENDBRANCH  11  15
BRANCH  12  18
ATOM     18  C   UNL     1      11.279   2.399  24.430  0.00  0.00    +0.000 C 
BRANCH  18  19
ATOM     19  S   UNL     1      11.124   1.619  22.815  0.00  0.00    +0.000 S 
BRANCH  19  21
ATOM     20  N   UNL     1      15.390   0.386  21.960  0.00  0.00    +0.000 N 
ATOM     21  C   UNL     1      12.815   1.132  22.476  0.00  0.00    +0.000 A 
ATOM     22  C   UNL     1      13.566   1.826  21.532  0.00  0.00    +0.000 A 
ATOM     23  C   UNL     1      13.379   0.057  23.156  0.00  0.00    +0.000 A 
ATOM     24  C   UNL     1      14.872   1.425  21.290  0.00  0.00    +0.000 A 
ATOM     25  C   UNL     1      14.690  -0.299  22.873  0.00  0.00    +0.000 A 
ATOM     26  C   UNL     1      16.768  -0.013  21.683  0.00  0.00    +0.000 C 
ENDBRANCH  19  21
ENDBRANCH  18  19
ENDBRANCH  12  18
ENDBRANCH   2   9
BRANCH   3  28
ATOM     27  N   UNL     1      16.607   9.036  20.405  0.00  0.00    +0.000 NA
ATOM     28  C   UNL     1      16.572   8.109  21.313  0.00  0.00    +0.000 C 
BRANCH  28  32
ATOM     29  S   UNL     1      18.360   4.640  20.514  0.00  0.00    +0.000 S 
ATOM     30  N   UNL     1      18.568   6.770  21.963  0.00  0.00    +0.000 NA
ATOM     31  N   UNL     1      20.291   5.178  22.262  0.00  0.00    +0.000 N 
ATOM     32  C   UNL     1      17.424   6.895  21.197  0.00  0.00    +0.000 A 
ATOM     33  C   UNL     1      17.147   5.842  20.352  0.00  0.00    +0.000 A 
ATOM     34  C   UNL     1      19.141   5.620  21.685  0.00  0.00    +0.000 A 
ATOM     35  H   UNL     1      13.924   6.787  22.888  0.00  0.00    +0.000 HD
ATOM     36  H   UNL     1      13.924   6.787  22.888  0.00  0.00    +0.000 HD
ENDBRANCH  28  32
BRANCH  27  37
ATOM     37  O   UNL     1      17.510   8.726  19.379  0.00  0.00    +0.000 OA
BRANCH  37  38
ATOM     38  C   UNL     1      18.377   9.859  19.195  0.00  0.00    +0.000 C 
ATOM     39  C   UNL     1      19.718   9.526  18.508  0.00  0.00    +0.000 C 
ATOM     40  C   UNL     1      19.198  10.238  20.444  0.00  0.00    +0.000 C 
ATOM     41  C   UNL     1      20.293   9.285  19.919  0.00  0.00    +0.000 C 
BRANCH  38  43
ATOM     42  O   UNL     1      17.387  12.131  19.051  0.00  0.00    +0.000 OA
ATOM     43  C   UNL     1      17.575  11.025  18.552  0.00  0.00    +0.000 C 
BRANCH  43  44
ATOM     44  O   UNL     1      17.078  10.696  17.328  0.00  0.00    +0.000 OA
ATOM     45  H   UNL     1      22.646  13.559  16.447  0.00  0.00    +0.000 HD
ENDBRANCH  43  44
ENDBRANCH  38  43
ENDBRANCH  37  38
ENDBRANCH  27  37
ENDBRANCH   3  28
TORSDOF 12
ENDMDL
MODEL 9
REMARK minimizedAffinity -7.35763168
REMARK minimizedRMSD -1
REMARK  Name = 54481001
REMARK  13 active torsions:
REMARK  status: ('A' for Active; 'I' for Inactive)
REMARK    1  A    between atoms: S_2  and  C_28
REMARK    2  A    between atoms: S_2  and  C_33
REMARK    3  A    between atoms: O_4  and  N_13
REMARK    4  A    between atoms: O_4  and  C_17
REMARK    5  A    between atoms: O_6  and  C_25
REMARK    6  A    between atoms: O_8  and  C_30
REMARK    7  A    between atoms: N_12  and  CA_22
REMARK    8  A    between atoms: N_15  and  C_40
REMARK    9  A    between atoms: C_17  and  C_25
REMARK   10  A    between atoms: CA_24  and  C_30
REMARK   11  A    between atoms: C_26  and  C_28
REMARK   12  A    between atoms: C_29  and  C_31
REMARK   13  A    between atoms: C_31  and  C_32
REMARK                            x       y       z     vdW  Elec       q    Type
REMARK                         _______ _______ _______ _____ _____    ______ ____
ROOT
ATOM      1  O   UNL     1      16.979   9.617  21.461  0.00  0.00    +0.000 OA
ATOM      2  N   UNL     1      18.694   8.037  21.191  0.00  0.00    +0.000 N 
ATOM      3  C   UNL     1      17.475   8.516  21.641  0.00  0.00    +0.000 C 
ATOM      4  H   UNL     1      19.878   7.952  21.455  0.00  0.00    +0.000 HD
ENDROOT
BRANCH   2   9
ATOM      5  S   UNL     1      21.384   6.635  20.730  0.00  0.00    +0.000 S 
ATOM      6  O   UNL     1      18.427   9.097  18.120  0.00  0.00    +0.000 OA
ATOM      7  N   UNL     1      20.470   8.066  18.689  0.00  0.00    +0.000 N 
ATOM      8  C   UNL     1      20.994   8.255  20.030  0.00  0.00    +0.000 C 
ATOM      9  CA  UNL     1      19.609   8.841  20.384  0.00  0.00    +0.000 C 
ATOM     10  C   UNL     1      19.325   8.763  18.858  0.00  0.00    +0.000 C 
ATOM     11  CA  UNL     1      21.112   7.363  17.721  0.00  0.00    +0.000 C 
ATOM     12  C   UNL     1      22.145   6.538  18.012  0.00  0.00    +0.000 C 
ATOM     13  C   UNL     1      22.612   6.249  19.437  0.00  0.00    +0.000 C 
BRANCH  11  15
ATOM     14  OXT UNL     1      20.917   8.355  15.569  0.00  0.00    +0.000 OA
ATOM     15  C   UNL     1      20.589   7.486  16.351  0.00  0.00    +0.000 C 
BRANCH  15  16
ATOM     16  O   UNL     1      19.706   6.495  16.119  0.00  0.00    +0.000 OA
ATOM     17  H   UNL     1      23.833   5.955  18.583  0.00  0.00    +0.000 HD
ENDBRANCH  15  16
ENDBRANCH  11  15
BRANCH  12  18
ATOM     18  C   UNL     1      22.958   5.786  16.986  0.00  0.00    +0.000 C 
BRANCH  18  19
ATOM     19  S   UNL     1      23.374   4.158  17.630  0.00  0.00    +0.000 S 
BRANCH  19  21
ATOM     20  N   UNL     1      19.348   2.097  17.618  0.00  0.00    +0.000 N 
ATOM     21  C   UNL     1      21.779   3.340  17.624  0.00  0.00    +0.000 A 
ATOM     22  C   UNL     1      21.056   3.229  16.440  0.00  0.00    +0.000 A 
ATOM     23  C   UNL     1      21.261   2.818  18.805  0.00  0.00    +0.000 A 
ATOM     24  C   UNL     1      19.824   2.592  16.466  0.00  0.00    +0.000 A 
ATOM     25  C   UNL     1      20.023   2.191  18.771  0.00  0.00    +0.000 A 
ATOM     26  C   UNL     1      18.048   1.432  17.615  0.00  0.00    +0.000 C 
ENDBRANCH  19  21
ENDBRANCH  18  19
ENDBRANCH  12  18
ENDBRANCH   2   9
BRANCH   3  28
ATOM     27  N   UNL     1      15.617   7.855  23.069  0.00  0.00    +0.000 NA
ATOM     28  C   UNL     1      16.710   7.508  22.458  0.00  0.00    +0.000 C 
BRANCH  28  32
ATOM     29  S   UNL     1      17.658   3.655  22.114  0.00  0.00    +0.000 S 
ATOM     30  N   UNL     1      18.121   5.763  23.535  0.00  0.00    +0.000 NA
ATOM     31  N   UNL     1      19.278   3.817  24.217  0.00  0.00    +0.000 N 
ATOM     32  C   UNL     1      17.223   6.115  22.545  0.00  0.00    +0.000 A 
ATOM     33  C   UNL     1      16.855   5.107  21.680  0.00  0.00    +0.000 A 
ATOM     34  C   UNL     1      18.419   4.490  23.404  0.00  0.00    +0.000 A 
ATOM     35  H   UNL     1      13.553   7.007  23.468  0.00  0.00    +0.000 HD
ATOM     36  H   UNL     1      13.553   7.007  23.468  0.00  0.00    +0.000 HD
ENDBRANCH  28  32
BRANCH  27  37
ATOM     37  O   UNL     1      15.049   6.782  23.768  0.00  0.00    +0.000 OA
BRANCH  37  38
ATOM     38  C   UNL     1      13.663   6.695  23.393  0.00  0.00    +0.000 C 
ATOM     39  C   UNL     1      12.926   5.470  23.974  0.00  0.00    +0.000 C 
ATOM     40  C   UNL     1      13.422   6.082  21.998  0.00  0.00    +0.000 C 
ATOM     41  C   UNL     1      13.344   4.709  22.699  0.00  0.00    +0.000 C 
BRANCH  38  43
ATOM     42  O   UNL     1      12.562   8.832  22.777  0.00  0.00    +0.000 OA
ATOM     43  C   UNL     1      12.972   8.064  23.643  0.00  0.00    +0.000 C 
BRANCH  43  44
ATOM     44  O   UNL     1      12.853   8.348  24.969  0.00  0.00    +0.000 OA
ATOM     45  H   UNL     1       7.489   5.570  23.102  0.00  0.00    +0.000 HD
ENDBRANCH  43  44
ENDBRANCH  38  43
ENDBRANCH  37  38
ENDBRANCH  27  37
ENDBRANCH   3  28
TORSDOF 12
ENDMDL
MODEL 10
REMARK minimizedAffinity -7.30729866
REMARK minimizedRMSD -1
REMARK  Name = 54481001
REMARK  13 active torsions:
REMARK  status: ('A' for Active; 'I' for Inactive)
REMARK    1  A    between atoms: S_2  and  C_28
REMARK    2  A    between atoms: S_2  and  C_33
REMARK    3  A    between atoms: O_4  and  N_13
REMARK    4  A    between atoms: O_4  and  C_17
REMARK    5  A    between atoms: O_6  and  C_25
REMARK    6  A    between atoms: O_8  and  C_30
REMARK    7  A    between atoms: N_12  and  CA_22
REMARK    8  A    between atoms: N_15  and  C_40
REMARK    9  A    between atoms: C_17  and  C_25
REMARK   10  A    between atoms: CA_24  and  C_30
REMARK   11  A    between atoms: C_26  and  C_28
REMARK   12  A    between atoms: C_29  and  C_31
REMARK   13  A    between atoms: C_31  and  C_32
REMARK                            x       y       z     vdW  Elec       q    Type
REMARK                         _______ _______ _______ _____ _____    ______ ____
ROOT
ATOM      1  O   UNL     1      14.036   6.846  23.626  0.00  0.00    +0.000 OA
ATOM      2  N   UNL     1      15.246   7.089  21.629  0.00  0.00    +0.000 N 
ATOM      3  C   UNL     1      14.408   6.455  22.531  0.00  0.00    +0.000 C 
ATOM      4  H   UNL     1      16.407   7.245  21.304  0.00  0.00    +0.000 HD
ENDROOT
BRANCH   2   9
ATOM      5  S   UNL     1      18.307   6.987  21.796  0.00  0.00    +0.000 S 
ATOM      6  O   UNL     1      15.177   9.820  19.850  0.00  0.00    +0.000 OA
ATOM      7  N   UNL     1      17.292   9.158  20.656  0.00  0.00    +0.000 N 
ATOM      8  C   UNL     1      17.372   8.524  21.959  0.00  0.00    +0.000 C 
ATOM      9  CA  UNL     1      15.834   8.403  21.887  0.00  0.00    +0.000 C 
ATOM     10  C   UNL     1      15.948   9.292  20.617  0.00  0.00    +0.000 C 
ATOM     11  CA  UNL     1      18.375   9.437  19.885  0.00  0.00    +0.000 C 
ATOM     12  C   UNL     1      19.584   8.882  20.137  0.00  0.00    +0.000 C 
ATOM     13  C   UNL     1      19.818   7.837  21.225  0.00  0.00    +0.000 C 
BRANCH  11  15
ATOM     14  OXT UNL     1      17.931  11.504  18.799  0.00  0.00    +0.000 OA
ATOM     15  C   UNL     1      18.159  10.314  18.724  0.00  0.00    +0.000 C 
BRANCH  15  16
ATOM     16  O   UNL     1      18.251   9.588  17.592  0.00  0.00    +0.000 OA
ATOM     17  H   UNL     1      21.116   9.016  21.447  0.00  0.00    +0.000 HD
ENDBRANCH  15  16
ENDBRANCH  11  15
BRANCH  12  18
ATOM     18  C   UNL     1      20.849   9.202  19.378  0.00  0.00    +0.000 C 
BRANCH  18  19
ATOM     19  S   UNL     1      21.678   7.670  18.925  0.00  0.00    +0.000 S 
BRANCH  19  21
ATOM     20  N   UNL     1      25.101   9.177  16.384  0.00  0.00    +0.000 N 
ATOM     21  C   UNL     1      23.036   8.266  17.919  0.00  0.00    +0.000 A 
ATOM     22  C   UNL     1      24.075   8.986  18.503  0.00  0.00    +0.000 A 
ATOM     23  C   UNL     1      23.051   8.013  16.551  0.00  0.00    +0.000 A 
ATOM     24  C   UNL     1      25.111   9.436  17.699  0.00  0.00    +0.000 A 
ATOM     25  C   UNL     1      24.115   8.488  15.796  0.00  0.00    +0.000 A 
ATOM     26  C   UNL     1      26.206   9.664  15.562  0.00  0.00    +0.000 C 
ENDBRANCH  19  21
ENDBRANCH  18  19
ENDBRANCH  12  18
ENDBRANCH   2   9
BRANCH   3  28
ATOM     27  N   UNL     1      12.706   4.736  22.260  0.00  0.00    +0.000 NA
ATOM     28  C   UNL     1      13.932   5.110  22.049  0.00  0.00    +0.000 C 
BRANCH  28  32
ATOM     29  S   UNL     1      16.697   2.543  20.772  0.00  0.00    +0.000 S 
ATOM     30  N   UNL     1      14.916   4.221  19.941  0.00  0.00    +0.000 NA
ATOM     31  N   UNL     1      16.127   3.116  18.239  0.00  0.00    +0.000 N 
ATOM     32  C   UNL     1      14.885   4.228  21.323  0.00  0.00    +0.000 A 
ATOM     33  C   UNL     1      15.776   3.383  21.950  0.00  0.00    +0.000 A 
ATOM     34  C   UNL     1      15.834   3.370  19.542  0.00  0.00    +0.000 A 
ATOM     35  H   UNL     1      16.085   7.362  23.287  0.00  0.00    +0.000 HD
ATOM     36  H   UNL     1      16.085   7.362  23.287  0.00  0.00    +0.000 HD
ENDBRANCH  28  32
BRANCH  27  37
ATOM     37  O   UNL     1      12.453   3.463  21.733  0.00  0.00    +0.000 OA
BRANCH  37  38
ATOM     38  C   UNL     1      11.712   2.717  22.714  0.00  0.00    +0.000 C 
ATOM     39  C   UNL     1      10.337   2.215  22.223  0.00  0.00    +0.000 C 
ATOM     40  C   UNL     1      10.945   3.591  23.728  0.00  0.00    +0.000 C 
ATOM     41  C   UNL     1       9.751   3.541  22.752  0.00  0.00    +0.000 C 
BRANCH  38  43
ATOM     42  O   UNL     1      12.697   1.343  24.532  0.00  0.00    +0.000 OA
ATOM     43  C   UNL     1      12.629   1.628  23.339  0.00  0.00    +0.000 C 
BRANCH  43  44
ATOM     44  O   UNL     1      13.383   0.989  22.403  0.00  0.00    +0.000 OA
ATOM     45  H   UNL     1       8.128  -2.409  23.300  0.00  0.00    +0.000 HD
ENDBRANCH  43  44
ENDBRANCH  38  43
ENDBRANCH  37  38
ENDBRANCH  27  37
ENDBRANCH   3  28
TORSDOF 12
ENDMDL
MODEL 11
REMARK minimizedAffinity -7.22824192
REMARK minimizedRMSD -1
REMARK  Name = 54481001
REMARK  13 active torsions:
REMARK  status: ('A' for Active; 'I' for Inactive)
REMARK    1  A    between atoms: S_2  and  C_28
REMARK    2  A    between atoms: S_2  and  C_33
REMARK    3  A    between atoms: O_4  and  N_13
REMARK    4  A    between atoms: O_4  and  C_17
REMARK    5  A    between atoms: O_6  and  C_25
REMARK    6  A    between atoms: O_8  and  C_30
REMARK    7  A    between atoms: N_12  and  CA_22
REMARK    8  A    between atoms: N_15  and  C_40
REMARK    9  A    between atoms: C_17  and  C_25
REMARK   10  A    between atoms: CA_24  and  C_30
REMARK   11  A    between atoms: C_26  and  C_28
REMARK   12  A    between atoms: C_29  and  C_31
REMARK   13  A    between atoms: C_31  and  C_32
REMARK                            x       y       z     vdW  Elec       q    Type
REMARK                         _______ _______ _______ _____ _____    ______ ____
ROOT
ATOM      1  O   UNL     1      16.070  10.035  22.125  0.00  0.00    +0.000 OA
ATOM      2  N   UNL     1      17.898   8.864  21.232  0.00  0.00    +0.000 N 
ATOM      3  C   UNL     1      16.733   9.023  21.964  0.00  0.00    +0.000 C 
ATOM      4  H   UNL     1      19.111   8.932  21.283  0.00  0.00    +0.000 HD
ENDROOT
BRANCH   2   9
ATOM      5  S   UNL     1      20.906   8.418  20.820  0.00  0.00    +0.000 S 
ATOM      6  O   UNL     1      17.386   9.968  18.208  0.00  0.00    +0.000 OA
ATOM      7  N   UNL     1      19.636   9.605  18.814  0.00  0.00    +0.000 N 
ATOM      8  C   UNL     1      20.038   9.869  20.183  0.00  0.00    +0.000 C 
ATOM      9  CA  UNL     1      18.530   9.964  20.505  0.00  0.00    +0.000 C 
ATOM     10  C   UNL     1      18.324   9.892  18.966  0.00  0.00    +0.000 C 
ATOM     11  CA  UNL     1      20.493   9.201  17.841  0.00  0.00    +0.000 C 
ATOM     12  C   UNL     1      21.727   8.730  18.136  0.00  0.00    +0.000 C 
ATOM     13  C   UNL     1      22.226   8.519  19.564  0.00  0.00    +0.000 C 
BRANCH  11  15
ATOM     14  OXT UNL     1      19.561  10.227  15.909  0.00  0.00    +0.000 OA
ATOM     15  C   UNL     1      19.994   9.234  16.457  0.00  0.00    +0.000 C 
BRANCH  15  16
ATOM     16  O   UNL     1      20.095   8.004  15.916  0.00  0.00    +0.000 OA
ATOM     17  H   UNL     1      23.418   9.997  18.811  0.00  0.00    +0.000 HD
ENDBRANCH  15  16
ENDBRANCH  11  15
BRANCH  12  18
ATOM     18  C   UNL     1      22.764   8.338  17.111  0.00  0.00    +0.000 C 
BRANCH  18  19
ATOM     19  S   UNL     1      24.386   8.892  17.660  0.00  0.00    +0.000 S 
BRANCH  19  21
ATOM     20  N   UNL     1      27.099   5.722  15.915  0.00  0.00    +0.000 N 
ATOM     21  C   UNL     1      25.460   7.635  16.967  0.00  0.00    +0.000 A 
ATOM     22  C   UNL     1      24.939   6.400  16.591  0.00  0.00    +0.000 A 
ATOM     23  C   UNL     1      26.818   7.893  16.806  0.00  0.00    +0.000 A 
ATOM     24  C   UNL     1      25.795   5.447  16.059  0.00  0.00    +0.000 A 
ATOM     25  C   UNL     1      27.626   6.901  16.268  0.00  0.00    +0.000 A 
ATOM     26  C   UNL     1      27.976   4.699  15.351  0.00  0.00    +0.000 C 
ENDBRANCH  19  21
ENDBRANCH  18  19
ENDBRANCH  12  18
ENDBRANCH   2   9
BRANCH   3  28
ATOM     27  N   UNL     1      15.475   7.798  23.649  0.00  0.00    +0.000 NA
ATOM     28  C   UNL     1      16.277   7.751  22.628  0.00  0.00    +0.000 C 
BRANCH  28  32
ATOM     29  S   UNL     1      18.001   4.265  21.768  0.00  0.00    +0.000 S 
ATOM     30  N   UNL     1      16.214   5.933  20.929  0.00  0.00    +0.000 NA
ATOM     31  N   UNL     1      16.502   4.008  19.586  0.00  0.00    +0.000 N 
ATOM     32  C   UNL     1      16.754   6.448  22.092  0.00  0.00    +0.000 A 
ATOM     33  C   UNL     1      17.735   5.686  22.690  0.00  0.00    +0.000 A 
ATOM     34  C   UNL     1      16.797   4.785  20.663  0.00  0.00    +0.000 A 
ATOM     35  H   UNL     1      18.962   9.646  21.967  0.00  0.00    +0.000 HD
ATOM     36  H   UNL     1      18.962   9.646  21.967  0.00  0.00    +0.000 HD
ENDBRANCH  28  32
BRANCH  27  37
ATOM     37  O   UNL     1      15.160   6.517  24.122  0.00  0.00    +0.000 OA
BRANCH  37  38
ATOM     38  C   UNL     1      13.778   6.520  24.519  0.00  0.00    +0.000 C 
ATOM     39  C   UNL     1      13.557   6.545  26.046  0.00  0.00    +0.000 C 
ATOM     40  C   UNL     1      13.118   5.126  24.524  0.00  0.00    +0.000 C 
ATOM     41  C   UNL     1      13.565   5.003  25.996  0.00  0.00    +0.000 C 
BRANCH  38  43
ATOM     42  O   UNL     1      12.816   8.767  24.089  0.00  0.00    +0.000 OA
ATOM     43  C   UNL     1      13.012   7.612  23.721  0.00  0.00    +0.000 C 
BRANCH  43  44
ATOM     44  O   UNL     1      12.558   7.152  22.523  0.00  0.00    +0.000 OA
ATOM     45  H   UNL     1      18.182   9.871  21.545  0.00  0.00    +0.000 HD
ENDBRANCH  43  44
ENDBRANCH  38  43
ENDBRANCH  37  38
ENDBRANCH  27  37
ENDBRANCH   3  28
TORSDOF 12
ENDMDL
MODEL 12
REMARK minimizedAffinity -7.21586466
REMARK minimizedRMSD -1
REMARK  Name = 54481001
REMARK  13 active torsions:
REMARK  status: ('A' for Active; 'I' for Inactive)
REMARK    1  A    between atoms: S_2  and  C_28
REMARK    2  A    between atoms: S_2  and  C_33
REMARK    3  A    between atoms: O_4  and  N_13
REMARK    4  A    between atoms: O_4  and  C_17
REMARK    5  A    between atoms: O_6  and  C_25
REMARK    6  A    between atoms: O_8  and  C_30
REMARK    7  A    between atoms: N_12  and  CA_22
REMARK    8  A    between atoms: N_15  and  C_40
REMARK    9  A    between atoms: C_17  and  C_25
REMARK   10  A    between atoms: CA_24  and  C_30
REMARK   11  A    between atoms: C_26  and  C_28
REMARK   12  A    between atoms: C_29  and  C_31
REMARK   13  A    between atoms: C_31  and  C_32
REMARK                            x       y       z     vdW  Elec       q    Type
REMARK                         _______ _______ _______ _____ _____    ______ ____
ROOT
ATOM      1  O   UNL     1      17.631   9.263  21.772  0.00  0.00    +0.000 OA
ATOM      2  N   UNL     1      18.855   7.368  21.124  0.00  0.00    +0.000 N 
ATOM      3  C   UNL     1      17.854   8.063  21.781  0.00  0.00    +0.000 C 
ATOM      4  H   UNL     1      20.003   6.976  21.211  0.00  0.00    +0.000 HD
ENDROOT
BRANCH   2   9
ATOM      5  S   UNL     1      21.265   5.567  20.525  0.00  0.00    +0.000 S 
ATOM      6  O   UNL     1      18.606   8.486  18.072  0.00  0.00    +0.000 OA
ATOM      7  N   UNL     1      20.487   7.141  18.535  0.00  0.00    +0.000 N 
ATOM      8  C   UNL     1      21.101   7.233  19.848  0.00  0.00    +0.000 C 
ATOM      9  CA  UNL     1      19.845   8.026  20.272  0.00  0.00    +0.000 C 
ATOM     10  C   UNL     1      19.476   8.008  18.762  0.00  0.00    +0.000 C 
ATOM     11  CA  UNL     1      20.961   6.355  17.534  0.00  0.00    +0.000 C 
ATOM     12  C   UNL     1      21.865   5.376  17.772  0.00  0.00    +0.000 C 
ATOM     13  C   UNL     1      22.352   5.003  19.171  0.00  0.00    +0.000 C 
BRANCH  11  15
ATOM     14  OXT UNL     1      19.587   5.837  15.665  0.00  0.00    +0.000 OA
ATOM     15  C   UNL     1      20.397   6.571  16.193  0.00  0.00    +0.000 C 
BRANCH  15  16
ATOM     16  O   UNL     1      20.923   7.693  15.663  0.00  0.00    +0.000 OA
ATOM     17  H   UNL     1      19.633   7.205  20.299  0.00  0.00    +0.000 HD
ENDBRANCH  15  16
ENDBRANCH  11  15
BRANCH  12  18
ATOM     18  C   UNL     1      22.498   4.515  16.705  0.00  0.00    +0.000 C 
BRANCH  18  19
ATOM     19  S   UNL     1      21.709   2.898  16.696  0.00  0.00    +0.000 S 
BRANCH  19  21
ATOM     20  N   UNL     1      21.159   2.153  12.270  0.00  0.00    +0.000 N 
ATOM     21  C   UNL     1      21.493   2.602  14.942  0.00  0.00    +0.000 A 
ATOM     22  C   UNL     1      22.548   2.821  14.061  0.00  0.00    +0.000 A 
ATOM     23  C   UNL     1      20.267   2.154  14.458  0.00  0.00    +0.000 A 
ATOM     24  C   UNL     1      22.350   2.584  12.709  0.00  0.00    +0.000 A 
ATOM     25  C   UNL     1      20.127   1.935  13.095  0.00  0.00    +0.000 A 
ATOM     26  C   UNL     1      20.981   1.913  10.840  0.00  0.00    +0.000 C 
ENDBRANCH  19  21
ENDBRANCH  18  19
ENDBRANCH  12  18
ENDBRANCH   2   9
BRANCH   3  28
ATOM     27  N   UNL     1      15.860   7.640  23.112  0.00  0.00    +0.000 NA
ATOM     28  C   UNL     1      16.960   7.172  22.603  0.00  0.00    +0.000 C 
BRANCH  28  32
ATOM     29  S   UNL     1      18.247   3.603  23.817  0.00  0.00    +0.000 S 
ATOM     30  N   UNL     1      17.142   4.816  21.819  0.00  0.00    +0.000 NA
ATOM     31  N   UNL     1      17.517   2.503  21.508  0.00  0.00    +0.000 N 
ATOM     32  C   UNL     1      17.355   5.754  22.812  0.00  0.00    +0.000 A 
ATOM     33  C   UNL     1      17.943   5.284  23.968  0.00  0.00    +0.000 A 
ATOM     34  C   UNL     1      17.574   3.648  22.239  0.00  0.00    +0.000 A 
ATOM     35  H   UNL     1      19.997   8.562  22.311  0.00  0.00    +0.000 HD
ATOM     36  H   UNL     1      19.997   8.562  22.311  0.00  0.00    +0.000 HD
ENDBRANCH  28  32
BRANCH  27  37
ATOM     37  O   UNL     1      15.165   6.661  23.835  0.00  0.00    +0.000 OA
BRANCH  37  38
ATOM     38  C   UNL     1      13.825   6.597  23.315  0.00  0.00    +0.000 C 
ATOM     39  C   UNL     1      13.000   5.402  23.836  0.00  0.00    +0.000 C 
ATOM     40  C   UNL     1      13.719   5.961  21.914  0.00  0.00    +0.000 C 
ATOM     41  C   UNL     1      13.533   4.605  22.627  0.00  0.00    +0.000 C 
BRANCH  38  43
ATOM     42  O   UNL     1      12.998   8.607  24.513  0.00  0.00    +0.000 OA
ATOM     43  C   UNL     1      13.145   7.987  23.464  0.00  0.00    +0.000 C 
BRANCH  43  44
ATOM     44  O   UNL     1      12.707   8.477  22.272  0.00  0.00    +0.000 OA
ATOM     45  H   UNL     1      18.495  10.799  23.309  0.00  0.00    +0.000 HD
ENDBRANCH  43  44
ENDBRANCH  38  43
ENDBRANCH  37  38
ENDBRANCH  27  37
ENDBRANCH   3  28
TORSDOF 12
ENDMDL
MODEL 13
REMARK minimizedAffinity -7.20524025
REMARK minimizedRMSD -1
REMARK  Name = 54481001
REMARK  13 active torsions:
REMARK  status: ('A' for Active; 'I' for Inactive)
REMARK    1  A    between atoms: S_2  and  C_28
REMARK    2  A    between atoms: S_2  and  C_33
REMARK    3  A    between atoms: O_4  and  N_13
REMARK    4  A    between atoms: O_4  and  C_17
REMARK    5  A    between atoms: O_6  and  C_25
REMARK    6  A    between atoms: O_8  and  C_30
REMARK    7  A    between atoms: N_12  and  CA_22
REMARK    8  A    between atoms: N_15  and  C_40
REMARK    9  A    between atoms: C_17  and  C_25
REMARK   10  A    between atoms: CA_24  and  C_30
REMARK   11  A    between atoms: C_26  and  C_28
REMARK   12  A    between atoms: C_29  and  C_31
REMARK   13  A    between atoms: C_31  and  C_32
REMARK                            x       y       z     vdW  Elec       q    Type
REMARK                         _______ _______ _______ _____ _____    ______ ____
ROOT
ATOM      1  O   UNL     1      15.776   4.429  19.893  0.00  0.00    +0.000 OA
ATOM      2  N   UNL     1      17.794   5.565  19.509  0.00  0.00    +0.000 N 
ATOM      3  C   UNL     1      16.537   5.370  20.056  0.00  0.00    +0.000 C 
ATOM      4  H   UNL     1      18.394   6.019  18.554  0.00  0.00    +0.000 HD
ENDROOT
BRANCH   2   9
ATOM      5  S   UNL     1      19.303   6.929  17.213  0.00  0.00    +0.000 S 
ATOM      6  O   UNL     1      20.120   3.349  20.063  0.00  0.00    +0.000 OA
ATOM      7  N   UNL     1      20.423   4.721  18.169  0.00  0.00    +0.000 N 
ATOM      8  C   UNL     1      19.252   5.135  17.417  0.00  0.00    +0.000 C 
ATOM      9  CA  UNL     1      18.420   4.602  18.605  0.00  0.00    +0.000 C 
ATOM     10  C   UNL     1      19.768   4.037  19.134  0.00  0.00    +0.000 C 
ATOM     11  CA  UNL     1      21.695   5.041  17.820  0.00  0.00    +0.000 C 
ATOM     12  C   UNL     1      21.958   6.013  16.915  0.00  0.00    +0.000 C 
ATOM     13  C   UNL     1      20.876   6.891  16.288  0.00  0.00    +0.000 C 
BRANCH  11  15
ATOM     14  OXT UNL     1      23.242   3.269  18.163  0.00  0.00    +0.000 OA
ATOM     15  C   UNL     1      22.777   4.331  18.521  0.00  0.00    +0.000 C 
BRANCH  15  16
ATOM     16  O   UNL     1      23.151   5.043  19.602  0.00  0.00    +0.000 OA
ATOM     17  H   UNL     1      22.022   6.977  15.315  0.00  0.00    +0.000 HD
ENDBRANCH  15  16
ENDBRANCH  11  15
BRANCH  12  18
ATOM     18  C   UNL     1      23.337   6.372  16.417  0.00  0.00    +0.000 C 
BRANCH  18  19
ATOM     19  S   UNL     1      23.416   8.142  16.101  0.00  0.00    +0.000 S 
BRANCH  19  21
ATOM     20  N   UNL     1      24.472   9.767  20.187  0.00  0.00    +0.000 N 
ATOM     21  C   UNL     1      23.835   8.788  17.719  0.00  0.00    +0.000 A 
ATOM     22  C   UNL     1      25.129   9.229  17.982  0.00  0.00    +0.000 A 
ATOM     23  C   UNL     1      22.867   8.846  18.717  0.00  0.00    +0.000 A 
ATOM     24  C   UNL     1      25.424   9.722  19.244  0.00  0.00    +0.000 A 
ATOM     25  C   UNL     1      23.220   9.350  19.961  0.00  0.00    +0.000 A 
ATOM     26  C   UNL     1      24.813  10.292  21.507  0.00  0.00    +0.000 C 
ENDBRANCH  19  21
ENDBRANCH  18  19
ENDBRANCH  12  18
ENDBRANCH   2   9
BRANCH   3  28
ATOM     27  N   UNL     1      15.210   6.296  21.874  0.00  0.00    +0.000 NA
ATOM     28  C   UNL     1      16.102   6.499  20.952  0.00  0.00    +0.000 C 
BRANCH  28  32
ATOM     29  S   UNL     1      18.203   9.883  20.978  0.00  0.00    +0.000 S 
ATOM     30  N   UNL     1      16.194   8.723  19.837  0.00  0.00    +0.000 NA
ATOM     31  N   UNL     1      16.659  10.911  19.072  0.00  0.00    +0.000 N 
ATOM     32  C   UNL     1      16.714   7.842  20.766  0.00  0.00    +0.000 A 
ATOM     33  C   UNL     1      17.804   8.293  21.480  0.00  0.00    +0.000 A 
ATOM     34  C   UNL     1      16.901   9.832  19.863  0.00  0.00    +0.000 A 
ATOM     35  H   UNL     1      14.679   6.943  23.955  0.00  0.00    +0.000 HD
ATOM     36  H   UNL     1      14.679   6.943  23.955  0.00  0.00    +0.000 HD
ENDBRANCH  28  32
BRANCH  27  37
ATOM     37  O   UNL     1      14.944   7.461  22.606  0.00  0.00    +0.000 OA
BRANCH  37  38
ATOM     38  C   UNL     1      13.673   7.292  23.258  0.00  0.00    +0.000 C 
ATOM     39  C   UNL     1      13.715   7.490  24.788  0.00  0.00    +0.000 C 
ATOM     40  C   UNL     1      13.293   5.823  23.535  0.00  0.00    +0.000 C 
ATOM     41  C   UNL     1      13.999   5.977  24.898  0.00  0.00    +0.000 C 
BRANCH  38  43
ATOM     42  O   UNL     1      12.519   9.352  22.490  0.00  0.00    +0.000 OA
ATOM     43  C   UNL     1      12.593   8.126  22.513  0.00  0.00    +0.000 C 
BRANCH  43  44
ATOM     44  O   UNL     1      11.696   7.340  21.856  0.00  0.00    +0.000 OA
ATOM     45  H   UNL     1      16.252   8.910  17.762  0.00  0.00    +0.000 HD
ENDBRANCH  43  44
ENDBRANCH  38  43
ENDBRANCH  37  38
ENDBRANCH  27  37
ENDBRANCH   3  28
TORSDOF 12
ENDMDL
MODEL 14
REMARK minimizedAffinity -7.18504238
REMARK minimizedRMSD -1
REMARK  Name = 54481001
REMARK  13 active torsions:
REMARK  status: ('A' for Active; 'I' for Inactive)
REMARK    1  A    between atoms: S_2  and  C_28
REMARK    2  A    between atoms: S_2  and  C_33
REMARK    3  A    between atoms: O_4  and  N_13
REMARK    4  A    between atoms: O_4  and  C_17
REMARK    5  A    between atoms: O_6  and  C_25
REMARK    6  A    between atoms: O_8  and  C_30
REMARK    7  A    between atoms: N_12  and  CA_22
REMARK    8  A    between atoms: N_15  and  C_40
REMARK    9  A    between atoms: C_17  and  C_25
REMARK   10  A    between atoms: CA_24  and  C_30
REMARK   11  A    between atoms: C_26  and  C_28
REMARK   12  A    between atoms: C_29  and  C_31
REMARK   13  A    between atoms: C_31  and  C_32
REMARK                            x       y       z     vdW  Elec       q    Type
REMARK                         _______ _______ _______ _____ _____    ______ ____
ROOT
ATOM      1  O   UNL     1      14.906   9.227  22.309  0.00  0.00    +0.000 OA
ATOM      2  N   UNL     1      14.469   6.929  22.111  0.00  0.00    +0.000 N 
ATOM      3  C   UNL     1      15.136   8.116  21.858  0.00  0.00    +0.000 C 
ATOM      4  H   UNL     1      13.542   6.225  21.758  0.00  0.00    +0.000 HD
ENDROOT
BRANCH   2   9
ATOM      5  S   UNL     1      12.942   4.285  21.815  0.00  0.00    +0.000 S 
ATOM      6  O   UNL     1      14.343   6.936  25.368  0.00  0.00    +0.000 OA
ATOM      7  N   UNL     1      13.106   5.246  24.284  0.00  0.00    +0.000 N 
ATOM      8  C   UNL     1      12.474   5.554  23.014  0.00  0.00    +0.000 C 
ATOM      9  CA  UNL     1      13.323   6.844  23.014  0.00  0.00    +0.000 C 
ATOM     10  C   UNL     1      13.705   6.443  24.467  0.00  0.00    +0.000 C 
ATOM     11  CA  UNL     1      12.990   4.049  24.914  0.00  0.00    +0.000 C 
ATOM     12  C   UNL     1      12.522   2.953  24.270  0.00  0.00    +0.000 C 
ATOM     13  C   UNL     1      12.182   2.935  22.781  0.00  0.00    +0.000 C 
BRANCH  11  15
ATOM     14  OXT UNL     1      12.742   4.106  27.278  0.00  0.00    +0.000 OA
ATOM     15  C   UNL     1      13.459   3.980  26.306  0.00  0.00    +0.000 C 
BRANCH  15  16
ATOM     16  O   UNL     1      14.789   3.760  26.319  0.00  0.00    +0.000 OA
ATOM     17  H   UNL     1      11.703   1.669  23.237  0.00  0.00    +0.000 HD
ENDBRANCH  15  16
ENDBRANCH  11  15
BRANCH  12  18
ATOM     18  C   UNL     1      12.289   1.611  24.920  0.00  0.00    +0.000 C 
BRANCH  18  19
ATOM     19  S   UNL     1      13.271   0.361  24.076  0.00  0.00    +0.000 S 
BRANCH  19  21
ATOM     20  N   UNL     1      17.400   1.134  25.751  0.00  0.00    +0.000 N 
ATOM     21  C   UNL     1      14.907   0.665  24.740  0.00  0.00    +0.000 A 
ATOM     22  C   UNL     1      15.205   0.312  26.053  0.00  0.00    +0.000 A 
ATOM     23  C   UNL     1      15.882   1.258  23.944  0.00  0.00    +0.000 A 
ATOM     24  C   UNL     1      16.480   0.562  26.540  0.00  0.00    +0.000 A 
ATOM     25  C   UNL     1      17.140   1.484  24.484  0.00  0.00    +0.000 A 
ATOM     26  C   UNL     1      18.734   1.385  26.291  0.00  0.00    +0.000 C 
ENDBRANCH  19  21
ENDBRANCH  18  19
ENDBRANCH  12  18
ENDBRANCH   2   9
BRANCH   3  28
ATOM     27  N   UNL     1      16.693   8.971  20.194  0.00  0.00    +0.000 NA
ATOM     28  C   UNL     1      16.279   7.957  20.890  0.00  0.00    +0.000 C 
BRANCH  28  32
ATOM     29  S   UNL     1      18.537   4.676  20.931  0.00  0.00    +0.000 S 
ATOM     30  N   UNL     1      16.310   5.623  20.024  0.00  0.00    +0.000 NA
ATOM     31  N   UNL     1      16.765   3.380  19.430  0.00  0.00    +0.000 N 
ATOM     32  C   UNL     1      16.924   6.623  20.754  0.00  0.00    +0.000 A 
ATOM     33  C   UNL     1      18.137   6.297  21.321  0.00  0.00    +0.000 A 
ATOM     34  C   UNL     1      17.071   4.551  20.050  0.00  0.00    +0.000 A 
ATOM     35  H   UNL     1      18.326   9.771  18.953  0.00  0.00    +0.000 HD
ATOM     36  H   UNL     1      18.326   9.771  18.953  0.00  0.00    +0.000 HD
ENDBRANCH  28  32
BRANCH  27  37
ATOM     37  O   UNL     1      17.764   8.626  19.359  0.00  0.00    +0.000 OA
BRANCH  37  38
ATOM     38  C   UNL     1      18.556   9.808  19.145  0.00  0.00    +0.000 C 
ATOM     39  C   UNL     1      19.952   9.536  18.547  0.00  0.00    +0.000 C 
ATOM     40  C   UNL     1      19.281  10.321  20.406  0.00  0.00    +0.000 C 
ATOM     41  C   UNL     1      20.468   9.423  19.996  0.00  0.00    +0.000 C 
BRANCH  38  43
ATOM     42  O   UNL     1      17.076  10.684  17.355  0.00  0.00    +0.000 OA
ATOM     43  C   UNL     1      17.709  10.871  18.391  0.00  0.00    +0.000 C 
BRANCH  43  44
ATOM     44  O   UNL     1      17.730  12.083  19.011  0.00  0.00    +0.000 OA
ATOM     45  H   UNL     1      12.636   8.951  21.065  0.00  0.00    +0.000 HD
ENDBRANCH  43  44
ENDBRANCH  38  43
ENDBRANCH  37  38
ENDBRANCH  27  37
ENDBRANCH   3  28
TORSDOF 12
ENDMDL
MODEL 15
REMARK minimizedAffinity -7.13462687
REMARK minimizedRMSD -1
REMARK  Name = 54481001
REMARK  13 active torsions:
REMARK  status: ('A' for Active; 'I' for Inactive)
REMARK    1  A    between atoms: S_2  and  C_28
REMARK    2  A    between atoms: S_2  and  C_33
REMARK    3  A    between atoms: O_4  and  N_13
REMARK    4  A    between atoms: O_4  and  C_17
REMARK    5  A    between atoms: O_6  and  C_25
REMARK    6  A    between atoms: O_8  and  C_30
REMARK    7  A    between atoms: N_12  and  CA_22
REMARK    8  A    between atoms: N_15  and  C_40
REMARK    9  A    between atoms: C_17  and  C_25
REMARK   10  A    between atoms: CA_24  and  C_30
REMARK   11  A    between atoms: C_26  and  C_28
REMARK   12  A    between atoms: C_29  and  C_31
REMARK   13  A    between atoms: C_31  and  C_32
REMARK                            x       y       z     vdW  Elec       q    Type
REMARK                         _______ _______ _______ _____ _____    ______ ____
ROOT
ATOM      1  O   UNL     1      22.502   8.128  15.623  0.00  0.00    +0.000 OA
ATOM      2  N   UNL     1      21.517   8.710  17.674  0.00  0.00    +0.000 N 
ATOM      3  C   UNL     1      22.555   8.390  16.815  0.00  0.00    +0.000 C 
ATOM      4  H   UNL     1      20.681   8.246  18.425  0.00  0.00    +0.000 HD
ENDROOT
BRANCH   2   9
ATOM      5  S   UNL     1      19.820   6.413  18.793  0.00  0.00    +0.000 S 
ATOM      6  O   UNL     1      19.251  10.990  18.212  0.00  0.00    +0.000 OA
ATOM      7  N   UNL     1      18.594   8.759  18.604  0.00  0.00    +0.000 N 
ATOM      8  C   UNL     1      19.131   7.716  17.749  0.00  0.00    +0.000 C 
ATOM      9  CA  UNL     1      20.124   8.783  17.237  0.00  0.00    +0.000 C 
ATOM     10  C   UNL     1      19.268   9.792  18.052  0.00  0.00    +0.000 C 
ATOM     11  CA  UNL     1      17.694   8.533  19.596  0.00  0.00    +0.000 C 
ATOM     12  C   UNL     1      17.449   7.284  20.057  0.00  0.00    +0.000 C 
ATOM     13  C   UNL     1      18.218   6.050  19.589  0.00  0.00    +0.000 C 
BRANCH  11  15
ATOM     14  OXT UNL     1      17.445  10.282  21.186  0.00  0.00    +0.000 OA
ATOM     15  C   UNL     1      17.047   9.712  20.191  0.00  0.00    +0.000 C 
BRANCH  15  16
ATOM     16  O   UNL     1      15.963  10.042  19.461  0.00  0.00    +0.000 OA
ATOM     17  H   UNL     1      20.163   8.547  17.588  0.00  0.00    +0.000 HD
ENDBRANCH  15  16
ENDBRANCH  11  15
BRANCH  12  18
ATOM     18  C   UNL     1      16.410   6.942  21.098  0.00  0.00    +0.000 C 
BRANCH  18  19
ATOM     19  S   UNL     1      17.191   6.856  22.717  0.00  0.00    +0.000 S 
BRANCH  19  21
ATOM     20  N   UNL     1      13.983   4.846  25.191  0.00  0.00    +0.000 N 
ATOM     21  C   UNL     1      15.921   6.059  23.698  0.00  0.00    +0.000 A 
ATOM     22  C   UNL     1      15.943   4.679  23.882  0.00  0.00    +0.000 A 
ATOM     23  C   UNL     1      14.909   6.819  24.276  0.00  0.00    +0.000 A 
ATOM     24  C   UNL     1      14.946   4.090  24.645  0.00  0.00    +0.000 A 
ATOM     25  C   UNL     1      13.938   6.175  25.030  0.00  0.00    +0.000 A 
ATOM     26  C   UNL     1      12.947   4.197  25.990  0.00  0.00    +0.000 C 
ENDBRANCH  19  21
ENDBRANCH  18  19
ENDBRANCH  12  18
ENDBRANCH   2   9
BRANCH   3  28
ATOM     27  N   UNL     1      24.208   9.292  18.357  0.00  0.00    +0.000 NA
ATOM     28  C   UNL     1      23.899   8.372  17.494  0.00  0.00    +0.000 C 
BRANCH  28  32
ATOM     29  S   UNL     1      26.772   5.951  16.171  0.00  0.00    +0.000 S 
ATOM     30  N   UNL     1      24.726   6.037  17.747  0.00  0.00    +0.000 NA
ATOM     31  N   UNL     1      25.846   3.957  17.668  0.00  0.00    +0.000 N 
ATOM     32  C   UNL     1      24.857   7.283  17.164  0.00  0.00    +0.000 A 
ATOM     33  C   UNL     1      25.907   7.428  16.282  0.00  0.00    +0.000 A 
ATOM     34  C   UNL     1      25.681   5.255  17.297  0.00  0.00    +0.000 A 
ATOM     35  H   UNL     1      22.208   8.527  14.603  0.00  0.00    +0.000 HD
ATOM     36  H   UNL     1      22.208   8.527  14.603  0.00  0.00    +0.000 HD
ENDBRANCH  28  32
BRANCH  27  37
ATOM     37  O   UNL     1      25.493   9.101  18.883  0.00  0.00    +0.000 OA
BRANCH  37  38
ATOM     38  C   UNL     1      25.404   9.204  20.315  0.00  0.00    +0.000 C 
ATOM     39  C   UNL     1      26.312   8.217  21.079  0.00  0.00    +0.000 C 
ATOM     40  C   UNL     1      24.203   8.457  20.931  0.00  0.00    +0.000 C 
ATOM     41  C   UNL     1      25.128   7.228  21.053  0.00  0.00    +0.000 C 
BRANCH  38  43
ATOM     42  O   UNL     1      24.722  11.339  21.382  0.00  0.00    +0.000 OA
ATOM     43  C   UNL     1      25.543  10.694  20.737  0.00  0.00    +0.000 C 
BRANCH  43  44
ATOM     44  O   UNL     1      26.713  11.244  20.308  0.00  0.00    +0.000 OA
ATOM     45  H   UNL     1      27.621   9.118  26.193  0.00  0.00    +0.000 HD
ENDBRANCH  43  44
ENDBRANCH  38  43
ENDBRANCH  37  38
ENDBRANCH  27  37
ENDBRANCH   3  28
TORSDOF 12
ENDMDL
MODEL 16
REMARK minimizedAffinity -7.07891989
REMARK minimizedRMSD -1
REMARK  Name = 54481001
REMARK  13 active torsions:
REMARK  status: ('A' for Active; 'I' for Inactive)
REMARK    1  A    between atoms: S_2  and  C_28
REMARK    2  A    between atoms: S_2  and  C_33
REMARK    3  A    between atoms: O_4  and  N_13
REMARK    4  A    between atoms: O_4  and  C_17
REMARK    5  A    between atoms: O_6  and  C_25
REMARK    6  A    between atoms: O_8  and  C_30
REMARK    7  A    between atoms: N_12  and  CA_22
REMARK    8  A    between atoms: N_15  and  C_40
REMARK    9  A    between atoms: C_17  and  C_25
REMARK   10  A    between atoms: CA_24  and  C_30
REMARK   11  A    between atoms: C_26  and  C_28
REMARK   12  A    between atoms: C_29  and  C_31
REMARK   13  A    between atoms: C_31  and  C_32
REMARK                            x       y       z     vdW  Elec       q    Type
REMARK                         _______ _______ _______ _____ _____    ______ ____
ROOT
ATOM      1  O   UNL     1      22.424   8.809  17.940  0.00  0.00    +0.000 OA
ATOM      2  N   UNL     1      20.997   7.633  19.385  0.00  0.00    +0.000 N 
ATOM      3  C   UNL     1      22.191   8.198  18.970  0.00  0.00    +0.000 C 
ATOM      4  H   UNL     1      20.315   6.627  19.341  0.00  0.00    +0.000 HD
ENDROOT
BRANCH   2   9
ATOM      5  S   UNL     1      18.737   5.931  20.572  0.00  0.00    +0.000 S 
ATOM      6  O   UNL     1      19.070  10.167  18.684  0.00  0.00    +0.000 OA
ATOM      7  N   UNL     1      17.986   8.220  19.456  0.00  0.00    +0.000 N 
ATOM      8  C   UNL     1      18.528   6.927  19.079  0.00  0.00    +0.000 C 
ATOM      9  CA  UNL     1      19.773   7.700  18.590  0.00  0.00    +0.000 C 
ATOM     10  C   UNL     1      18.929   8.978  18.854  0.00  0.00    +0.000 C 
ATOM     11  CA  UNL     1      16.858   8.378  20.195  0.00  0.00    +0.000 C 
ATOM     12  C   UNL     1      16.314   7.348  20.885  0.00  0.00    +0.000 C 
ATOM     13  C   UNL     1      16.958   5.966  20.978  0.00  0.00    +0.000 C 
BRANCH  11  15
ATOM     14  OXT UNL     1      15.583  10.226  19.412  0.00  0.00    +0.000 OA
ATOM     15  C   UNL     1      16.293   9.734  20.266  0.00  0.00    +0.000 C 
BRANCH  15  16
ATOM     16  O   UNL     1      16.689  10.323  21.411  0.00  0.00    +0.000 OA
ATOM     17  H   UNL     1      15.396   5.678  21.035  0.00  0.00    +0.000 HD
ENDBRANCH  15  16
ENDBRANCH  11  15
BRANCH  12  18
ATOM     18  C   UNL     1      15.021   7.424  21.662  0.00  0.00    +0.000 C 
BRANCH  18  19
ATOM     19  S   UNL     1      15.388   7.631  23.412  0.00  0.00    +0.000 S 
BRANCH  19  21
ATOM     20  N   UNL     1      13.142   4.163  25.250  0.00  0.00    +0.000 N 
ATOM     21  C   UNL     1      14.497   6.258  24.141  0.00  0.00    +0.000 A 
ATOM     22  C   UNL     1      14.105   6.309  25.476  0.00  0.00    +0.000 A 
ATOM     23  C   UNL     1      14.197   5.137  23.373  0.00  0.00    +0.000 A 
ATOM     24  C   UNL     1      13.418   5.230  26.013  0.00  0.00    +0.000 A 
ATOM     25  C   UNL     1      13.506   4.088  23.964  0.00  0.00    +0.000 A 
ATOM     26  C   UNL     1      12.416   3.043  25.844  0.00  0.00    +0.000 C 
ENDBRANCH  19  21
ENDBRANCH  18  19
ENDBRANCH  12  18
ENDBRANCH   2   9
BRANCH   3  28
ATOM     27  N   UNL     1      23.829   9.011  20.577  0.00  0.00    +0.000 NA
ATOM     28  C   UNL     1      23.313   7.995  19.954  0.00  0.00    +0.000 C 
BRANCH  28  32
ATOM     29  S   UNL     1      25.145   4.461  20.108  0.00  0.00    +0.000 S 
ATOM     30  N   UNL     1      23.187   5.803  21.129  0.00  0.00    +0.000 NA
ATOM     31  N   UNL     1      23.448   3.610  21.971  0.00  0.00    +0.000 N 
ATOM     32  C   UNL     1      23.812   6.615  20.201  0.00  0.00    +0.000 A 
ATOM     33  C   UNL     1      24.892   6.062  19.548  0.00  0.00    +0.000 A 
ATOM     34  C   UNL     1      23.805   4.644  21.163  0.00  0.00    +0.000 A 
ATOM     35  H   UNL     1      21.987   7.573  16.904  0.00  0.00    +0.000 HD
ATOM     36  H   UNL     1      21.987   7.573  16.904  0.00  0.00    +0.000 HD
ENDBRANCH  28  32
BRANCH  27  37
ATOM     37  O   UNL     1      24.852   8.620  21.452  0.00  0.00    +0.000 OA
BRANCH  37  38
ATOM     38  C   UNL     1      25.686   9.766  21.696  0.00  0.00    +0.000 C 
ATOM     39  C   UNL     1      26.455   9.717  23.033  0.00  0.00    +0.000 C 
ATOM     40  C   UNL     1      24.933  10.988  22.261  0.00  0.00    +0.000 C 
ATOM     41  C   UNL     1      25.244  10.433  23.667  0.00  0.00    +0.000 C 
BRANCH  38  43
ATOM     42  O   UNL     1      26.876   9.228  19.585  0.00  0.00    +0.000 OA
ATOM     43  C   UNL     1      26.559  10.049  20.441  0.00  0.00    +0.000 C 
BRANCH  43  44
ATOM     44  O   UNL     1      26.957  11.349  20.372  0.00  0.00    +0.000 OA
ATOM     45  H   UNL     1      21.644  10.774  16.993  0.00  0.00    +0.000 HD
ENDBRANCH  43  44
ENDBRANCH  38  43
ENDBRANCH  37  38
ENDBRANCH  27  37
ENDBRANCH   3  28
TORSDOF 12
ENDMDL
MODEL 17
REMARK minimizedAffinity -7.03734493
REMARK minimizedRMSD -1
REMARK  Name = 54481001
REMARK  13 active torsions:
REMARK  status: ('A' for Active; 'I' for Inactive)
REMARK    1  A    between atoms: S_2  and  C_28
REMARK    2  A    between atoms: S_2  and  C_33
REMARK    3  A    between atoms: O_4  and  N_13
REMARK    4  A    between atoms: O_4  and  C_17
REMARK    5  A    between atoms: O_6  and  C_25
REMARK    6  A    between atoms: O_8  and  C_30
REMARK    7  A    between atoms: N_12  and  CA_22
REMARK    8  A    between atoms: N_15  and  C_40
REMARK    9  A    between atoms: C_17  and  C_25
REMARK   10  A    between atoms: CA_24  and  C_30
REMARK   11  A    between atoms: C_26  and  C_28
REMARK   12  A    between atoms: C_29  and  C_31
REMARK   13  A    between atoms: C_31  and  C_32
REMARK                            x       y       z     vdW  Elec       q    Type
REMARK                         _______ _______ _______ _____ _____    ______ ____
ROOT
ATOM      1  O   UNL     1      17.994   9.754  21.462  0.00  0.00    +0.000 OA
ATOM      2  N   UNL     1      18.554   8.441  19.598  0.00  0.00    +0.000 N 
ATOM      3  C   UNL     1      17.840   8.786  20.734  0.00  0.00    +0.000 C 
ATOM      4  H   UNL     1      19.529   7.839  19.192  0.00  0.00    +0.000 HD
ENDROOT
BRANCH   2   9
ATOM      5  S   UNL     1      21.289   7.354  20.462  0.00  0.00    +0.000 S 
ATOM      6  O   UNL     1      19.477   9.054  16.532  0.00  0.00    +0.000 OA
ATOM      7  N   UNL     1      21.182   8.379  18.016  0.00  0.00    +0.000 N 
ATOM      8  C   UNL     1      21.106   8.805  19.401  0.00  0.00    +0.000 C 
ATOM      9  CA  UNL     1      19.660   9.247  19.085  0.00  0.00    +0.000 C 
ATOM     10  C   UNL     1      20.022   8.937  17.605  0.00  0.00    +0.000 C 
ATOM     11  CA  UNL     1      22.206   7.646  17.506  0.00  0.00    +0.000 C 
ATOM     12  C   UNL     1      23.087   7.007  18.311  0.00  0.00    +0.000 C 
ATOM     13  C   UNL     1      22.958   6.967  19.833  0.00  0.00    +0.000 C 
BRANCH  11  15
ATOM     14  OXT UNL     1      22.940   8.241  15.325  0.00  0.00    +0.000 OA
ATOM     15  C   UNL     1      22.274   7.523  16.042  0.00  0.00    +0.000 C 
BRANCH  15  16
ATOM     16  O   UNL     1      21.487   6.504  15.643  0.00  0.00    +0.000 OA
ATOM     17  H   UNL     1      24.266   6.421  19.600  0.00  0.00    +0.000 HD
ENDBRANCH  15  16
ENDBRANCH  11  15
BRANCH  12  18
ATOM     18  C   UNL     1      24.294   6.242  17.825  0.00  0.00    +0.000 C 
BRANCH  18  19
ATOM     19  S   UNL     1      24.132   4.511  18.292  0.00  0.00    +0.000 S 
BRANCH  19  21
ATOM     20  N   UNL     1      26.549   2.444  15.077  0.00  0.00    +0.000 N 
ATOM     21  C   UNL     1      25.089   3.693  17.017  0.00  0.00    +0.000 A 
ATOM     22  C   UNL     1      24.444   2.999  15.996  0.00  0.00    +0.000 A 
ATOM     23  C   UNL     1      26.479   3.749  17.047  0.00  0.00    +0.000 A 
ATOM     24  C   UNL     1      25.211   2.374  15.024  0.00  0.00    +0.000 A 
ATOM     25  C   UNL     1      27.195   3.105  16.047  0.00  0.00    +0.000 A 
ATOM     26  C   UNL     1      27.330   1.777  14.039  0.00  0.00    +0.000 C 
ENDBRANCH  19  21
ENDBRANCH  18  19
ENDBRANCH  12  18
ENDBRANCH   2   9
BRANCH   3  28
ATOM     27  N   UNL     1      15.561   8.220  21.375  0.00  0.00    +0.000 NA
ATOM     28  C   UNL     1      16.752   7.801  21.069  0.00  0.00    +0.000 C 
BRANCH  28  32
ATOM     29  S   UNL     1      17.775   4.000  21.676  0.00  0.00    +0.000 S 
ATOM     30  N   UNL     1      16.883   5.621  19.872  0.00  0.00    +0.000 NA
ATOM     31  N   UNL     1      17.172   3.386  19.160  0.00  0.00    +0.000 N 
ATOM     32  C   UNL     1      17.063   6.347  21.035  0.00  0.00    +0.000 A 
ATOM     33  C   UNL     1      17.539   5.639  22.119  0.00  0.00    +0.000 A 
ATOM     34  C   UNL     1      17.227   4.372  20.094  0.00  0.00    +0.000 A 
ATOM     35  H   UNL     1      19.863   9.036  21.242  0.00  0.00    +0.000 HD
ATOM     36  H   UNL     1      19.863   9.036  21.242  0.00  0.00    +0.000 HD
ENDBRANCH  28  32
BRANCH  27  37
ATOM     37  O   UNL     1      14.690   7.158  21.647  0.00  0.00    +0.000 OA
BRANCH  37  38
ATOM     38  C   UNL     1      13.962   7.479  22.846  0.00  0.00    +0.000 C 
ATOM     39  C   UNL     1      14.717   7.154  24.152  0.00  0.00    +0.000 C 
ATOM     40  C   UNL     1      12.932   6.411  23.266  0.00  0.00    +0.000 C 
ATOM     41  C   UNL     1      14.058   5.760  24.096  0.00  0.00    +0.000 C 
BRANCH  38  43
ATOM     42  O   UNL     1      13.771   9.885  23.422  0.00  0.00    +0.000 OA
ATOM     43  C   UNL     1      13.409   8.928  22.744  0.00  0.00    +0.000 C 
BRANCH  43  44
ATOM     44  O   UNL     1      12.444   9.046  21.790  0.00  0.00    +0.000 OA
ATOM     45  H   UNL     1      17.976  10.585  19.144  0.00  0.00    +0.000 HD
ENDBRANCH  43  44
ENDBRANCH  38  43
ENDBRANCH  37  38
ENDBRANCH  27  37
ENDBRANCH   3  28
TORSDOF 12
ENDMDL
MODEL 18
REMARK minimizedAffinity -7.01791
REMARK minimizedRMSD -1
REMARK  Name = 54481001
REMARK  13 active torsions:
REMARK  status: ('A' for Active; 'I' for Inactive)
REMARK    1  A    between atoms: S_2  and  C_28
REMARK    2  A    between atoms: S_2  and  C_33
REMARK    3  A    between atoms: O_4  and  N_13
REMARK    4  A    between atoms: O_4  and  C_17
REMARK    5  A    between atoms: O_6  and  C_25
REMARK    6  A    between atoms: O_8  and  C_30
REMARK    7  A    between atoms: N_12  and  CA_22
REMARK    8  A    between atoms: N_15  and  C_40
REMARK    9  A    between atoms: C_17  and  C_25
REMARK   10  A    between atoms: CA_24  and  C_30
REMARK   11  A    between atoms: C_26  and  C_28
REMARK   12  A    between atoms: C_29  and  C_31
REMARK   13  A    between atoms: C_31  and  C_32
REMARK                            x       y       z     vdW  Elec       q    Type
REMARK                         _______ _______ _______ _____ _____    ______ ____
ROOT
ATOM      1  O   UNL     1      18.102   8.522  21.982  0.00  0.00    +0.000 OA
ATOM      2  N   UNL     1      16.865   6.528  21.920  0.00  0.00    +0.000 N 
ATOM      3  C   UNL     1      17.740   7.489  21.442  0.00  0.00    +0.000 C 
ATOM      4  H   UNL     1      15.694   6.203  21.979  0.00  0.00    +0.000 HD
ENDROOT
BRANCH   2   9
ATOM      5  S   UNL     1      13.879   5.831  21.799  0.00  0.00    +0.000 S 
ATOM      6  O   UNL     1      17.401   4.881  24.681  0.00  0.00    +0.000 OA
ATOM      7  N   UNL     1      15.151   5.053  23.994  0.00  0.00    +0.000 N 
ATOM      8  C   UNL     1      14.717   6.272  23.337  0.00  0.00    +0.000 C 
ATOM      9  CA  UNL     1      16.215   6.631  23.226  0.00  0.00    +0.000 C 
ATOM     10  C   UNL     1      16.451   5.393  24.137  0.00  0.00    +0.000 C 
ATOM     11  CA  UNL     1      14.325   4.014  24.280  0.00  0.00    +0.000 C 
ATOM     12  C   UNL     1      13.099   3.909  23.716  0.00  0.00    +0.000 C 
ATOM     13  C   UNL     1      12.580   4.873  22.650  0.00  0.00    +0.000 C 
BRANCH  11  15
ATOM     14  OXT UNL     1      14.748   3.000  26.389  0.00  0.00    +0.000 OA
ATOM     15  C   UNL     1      14.848   2.973  25.179  0.00  0.00    +0.000 C 
BRANCH  15  16
ATOM     16  O   UNL     1      15.444   2.011  24.448  0.00  0.00    +0.000 OA
ATOM     17  H   UNL     1      11.341   4.244  23.196  0.00  0.00    +0.000 HD
ENDBRANCH  15  16
ENDBRANCH  11  15
BRANCH  12  18
ATOM     18  C   UNL     1      12.093   2.832  24.042  0.00  0.00    +0.000 C 
BRANCH  18  19
ATOM     19  S   UNL     1      10.987   2.603  22.640  0.00  0.00    +0.000 S 
BRANCH  19  21
ATOM     20  N   UNL     1       7.029   3.971  24.348  0.00  0.00    +0.000 N 
ATOM     21  C   UNL     1       9.418   3.145  23.315  0.00  0.00    +0.000 A 
ATOM     22  C   UNL     1       8.768   4.250  22.773  0.00  0.00    +0.000 A 
ATOM     23  C   UNL     1       8.848   2.462  24.385  0.00  0.00    +0.000 A 
ATOM     24  C   UNL     1       7.555   4.647  23.318  0.00  0.00    +0.000 A 
ATOM     25  C   UNL     1       7.633   2.905  24.889  0.00  0.00    +0.000 A 
ATOM     26  C   UNL     1       5.751   4.412  24.901  0.00  0.00    +0.000 C 
ENDBRANCH  19  21
ENDBRANCH  18  19
ENDBRANCH  12  18
ENDBRANCH   2   9
BRANCH   3  28
ATOM     27  N   UNL     1      18.290   8.078  19.145  0.00  0.00    +0.000 NA
ATOM     28  C   UNL     1      18.277   7.169  20.072  0.00  0.00    +0.000 C 
BRANCH  28  32
ATOM     29  S   UNL     1      19.009   3.384  19.069  0.00  0.00    +0.000 S 
ATOM     30  N   UNL     1      20.079   5.454  20.186  0.00  0.00    +0.000 NA
ATOM     31  N   UNL     1      21.466   3.543  20.075  0.00  0.00    +0.000 N 
ATOM     32  C   UNL     1      18.796   5.800  19.806  0.00  0.00    +0.000 A 
ATOM     33  C   UNL     1      18.064   4.810  19.186  0.00  0.00    +0.000 A 
ATOM     34  C   UNL     1      20.299   4.204  19.847  0.00  0.00    +0.000 A 
ATOM     35  H   UNL     1      16.077   6.470  22.503  0.00  0.00    +0.000 HD
ATOM     36  H   UNL     1      16.077   6.470  22.503  0.00  0.00    +0.000 HD
ENDBRANCH  28  32
BRANCH  27  37
ATOM     37  O   UNL     1      18.832   7.592  17.948  0.00  0.00    +0.000 OA
BRANCH  37  38
ATOM     38  C   UNL     1      19.866   8.500  17.530  0.00  0.00    +0.000 C 
ATOM     39  C   UNL     1      20.703   8.001  16.333  0.00  0.00    +0.000 C 
ATOM     40  C   UNL     1      21.158   8.418  18.369  0.00  0.00    +0.000 C 
ATOM     41  C   UNL     1      21.652   7.356  17.365  0.00  0.00    +0.000 C 
BRANCH  38  43
ATOM     42  O   UNL     1      19.390  10.850  18.171  0.00  0.00    +0.000 OA
ATOM     43  C   UNL     1      19.270   9.927  17.371  0.00  0.00    +0.000 C 
BRANCH  43  44
ATOM     44  O   UNL     1      18.572  10.068  16.211  0.00  0.00    +0.000 OA
ATOM     45  H   UNL     1      24.489  12.032  15.159  0.00  0.00    +0.000 HD
ENDBRANCH  43  44
ENDBRANCH  38  43
ENDBRANCH  37  38
ENDBRANCH  27  37
ENDBRANCH   3  28
TORSDOF 12
ENDMDL
MODEL 19
REMARK minimizedAffinity -6.98073435
REMARK minimizedRMSD -1
REMARK  Name = 54481001
REMARK  13 active torsions:
REMARK  status: ('A' for Active; 'I' for Inactive)
REMARK    1  A    between atoms: S_2  and  C_28
REMARK    2  A    between atoms: S_2  and  C_33
REMARK    3  A    between atoms: O_4  and  N_13
REMARK    4  A    between atoms: O_4  and  C_17
REMARK    5  A    between atoms: O_6  and  C_25
REMARK    6  A    between atoms: O_8  and  C_30
REMARK    7  A    between atoms: N_12  and  CA_22
REMARK    8  A    between atoms: N_15  and  C_40
REMARK    9  A    between atoms: C_17  and  C_25
REMARK   10  A    between atoms: CA_24  and  C_30
REMARK   11  A    between atoms: C_26  and  C_28
REMARK   12  A    between atoms: C_29  and  C_31
REMARK   13  A    between atoms: C_31  and  C_32
REMARK                            x       y       z     vdW  Elec       q    Type
REMARK                         _______ _______ _______ _____ _____    ______ ____
ROOT
ATOM      1  O   UNL     1      22.683   7.940  15.438  0.00  0.00    +0.000 OA
ATOM      2  N   UNL     1      21.747   8.116  17.584  0.00  0.00    +0.000 N 
ATOM      3  C   UNL     1      22.763   8.119  16.643  0.00  0.00    +0.000 C 
ATOM      4  H   UNL     1      21.102   7.411  18.336  0.00  0.00    +0.000 HD
ENDROOT
BRANCH   2   9
ATOM      5  S   UNL     1      20.243   6.550  19.752  0.00  0.00    +0.000 S 
ATOM      6  O   UNL     1      19.321  10.231  17.065  0.00  0.00    +0.000 OA
ATOM      7  N   UNL     1      18.840   8.433  18.514  0.00  0.00    +0.000 N 
ATOM      8  C   UNL     1      19.444   7.141  18.243  0.00  0.00    +0.000 C 
ATOM      9  CA  UNL     1      20.347   7.884  17.233  0.00  0.00    +0.000 C 
ATOM     10  C   UNL     1      19.427   9.108  17.501  0.00  0.00    +0.000 C 
ATOM     11  CA  UNL     1      17.973   8.661  19.534  0.00  0.00    +0.000 C 
ATOM     12  C   UNL     1      17.830   7.780  20.552  0.00  0.00    +0.000 C 
ATOM     13  C   UNL     1      18.684   6.522  20.699  0.00  0.00    +0.000 C 
BRANCH  11  15
ATOM     14  OXT UNL     1      16.168  10.108  18.984  0.00  0.00    +0.000 OA
ATOM     15  C   UNL     1      17.246   9.940  19.517  0.00  0.00    +0.000 C 
BRANCH  15  16
ATOM     16  O   UNL     1      17.964  10.870  20.177  0.00  0.00    +0.000 OA
ATOM     17  H   UNL     1      17.523   6.262  21.576  0.00  0.00    +0.000 HD
ENDBRANCH  15  16
ENDBRANCH  11  15
BRANCH  12  18
ATOM     18  C   UNL     1      16.833   7.922  21.676  0.00  0.00    +0.000 C 
BRANCH  18  19
ATOM     19  S   UNL     1      17.077   6.591  22.863  0.00  0.00    +0.000 S 
BRANCH  19  21
ATOM     20  N   UNL     1      12.925   4.822  23.147  0.00  0.00    +0.000 N 
ATOM     21  C   UNL     1      15.432   5.891  22.977  0.00  0.00    +0.000 A 
ATOM     22  C   UNL     1      15.060   5.159  24.102  0.00  0.00    +0.000 A 
ATOM     23  C   UNL     1      14.524   6.076  21.940  0.00  0.00    +0.000 A 
ATOM     24  C   UNL     1      13.780   4.629  24.161  0.00  0.00    +0.000 A 
ATOM     25  C   UNL     1      13.256   5.521  22.054  0.00  0.00    +0.000 A 
ATOM     26  C   UNL     1      11.584   4.251  23.238  0.00  0.00    +0.000 C 
ENDBRANCH  19  21
ENDBRANCH  18  19
ENDBRANCH  12  18
ENDBRANCH   2   9
BRANCH   3  28
ATOM     27  N   UNL     1      25.157   8.524  16.474  0.00  0.00    +0.000 NA
ATOM     28  C   UNL     1      24.121   8.375  17.242  0.00  0.00    +0.000 C 
BRANCH  28  32
ATOM     29  S   UNL     1      24.538   7.876  21.172  0.00  0.00    +0.000 S 
ATOM     30  N   UNL     1      24.171   9.682  19.361  0.00  0.00    +0.000 NA
ATOM     31  N   UNL     1      24.283  10.492  21.579  0.00  0.00    +0.000 N 
ATOM     32  C   UNL     1      24.249   8.459  18.722  0.00  0.00    +0.000 A 
ATOM     33  C   UNL     1      24.447   7.365  19.538  0.00  0.00    +0.000 A 
ATOM     34  C   UNL     1      24.310   9.495  20.654  0.00  0.00    +0.000 A 
ATOM     35  H   UNL     1      21.099   6.939  17.023  0.00  0.00    +0.000 HD
ATOM     36  H   UNL     1      21.099   6.939  17.023  0.00  0.00    +0.000 HD
ENDBRANCH  28  32
BRANCH  27  37
ATOM     37  O   UNL     1      26.324   8.758  17.215  0.00  0.00    +0.000 OA
BRANCH  37  38
ATOM     38  C   UNL     1      27.378   7.964  16.643  0.00  0.00    +0.000 C 
ATOM     39  C   UNL     1      26.922   6.583  16.127  0.00  0.00    +0.000 C 
ATOM     40  C   UNL     1      28.235   7.209  17.679  0.00  0.00    +0.000 C 
ATOM     41  C   UNL     1      27.242   6.037  17.534  0.00  0.00    +0.000 C 
BRANCH  38  43
ATOM     42  O   UNL     1      28.729   8.403  14.607  0.00  0.00    +0.000 OA
ATOM     43  C   UNL     1      28.176   8.821  15.621  0.00  0.00    +0.000 C 
BRANCH  43  44
ATOM     44  O   UNL     1      28.208  10.138  15.965  0.00  0.00    +0.000 OA
ATOM     45  H   UNL     1      23.351   9.294  12.007  0.00  0.00    +0.000 HD
ENDBRANCH  43  44
ENDBRANCH  38  43
ENDBRANCH  37  38
ENDBRANCH  27  37
ENDBRANCH   3  28
TORSDOF 12
ENDMDL
MODEL 20
REMARK minimizedAffinity -6.86060715
REMARK minimizedRMSD -1
REMARK  Name = 54481001
REMARK  13 active torsions:
REMARK  status: ('A' for Active; 'I' for Inactive)
REMARK    1  A    between atoms: S_2  and  C_28
REMARK    2  A    between atoms: S_2  and  C_33
REMARK    3  A    between atoms: O_4  and  N_13
REMARK    4  A    between atoms: O_4  and  C_17
REMARK    5  A    between atoms: O_6  and  C_25
REMARK    6  A    between atoms: O_8  and  C_30
REMARK    7  A    between atoms: N_12  and  CA_22
REMARK    8  A    between atoms: N_15  and  C_40
REMARK    9  A    between atoms: C_17  and  C_25
REMARK   10  A    between atoms: CA_24  and  C_30
REMARK   11  A    between atoms: C_26  and  C_28
REMARK   12  A    between atoms: C_29  and  C_31
REMARK   13  A    between atoms: C_31  and  C_32
REMARK                            x       y       z     vdW  Elec       q    Type
REMARK                         _______ _______ _______ _____ _____    ______ ____
ROOT
ATOM      1  O   UNL     1      15.620   9.212  23.233  0.00  0.00    +0.000 OA
ATOM      2  N   UNL     1      15.256   6.898  23.093  0.00  0.00    +0.000 N 
ATOM      3  C   UNL     1      15.766   8.124  22.700  0.00  0.00    +0.000 C 
ATOM      4  H   UNL     1      14.302   6.149  22.993  0.00  0.00    +0.000 HD
ENDROOT
BRANCH   2   9
ATOM      5  S   UNL     1      12.797   5.142  22.556  0.00  0.00    +0.000 S 
ATOM      6  O   UNL     1      15.922   5.531  25.976  0.00  0.00    +0.000 OA
ATOM      7  N   UNL     1      13.906   4.864  24.952  0.00  0.00    +0.000 N 
ATOM      8  C   UNL     1      13.161   5.842  24.181  0.00  0.00    +0.000 C 
ATOM      9  CA  UNL     1      14.418   6.734  24.280  0.00  0.00    +0.000 C 
ATOM     10  C   UNL     1      14.948   5.661  25.272  0.00  0.00    +0.000 C 
ATOM     11  CA  UNL     1      13.487   3.588  25.158  0.00  0.00    +0.000 C 
ATOM     12  C   UNL     1      12.491   3.043  24.421  0.00  0.00    +0.000 C 
ATOM     13  C   UNL     1      11.827   3.759  23.246  0.00  0.00    +0.000 C 
BRANCH  11  15
ATOM     14  OXT UNL     1      13.863   2.700  27.331  0.00  0.00    +0.000 OA
ATOM     15  C   UNL     1      14.209   2.805  26.172  0.00  0.00    +0.000 C 
BRANCH  15  16
ATOM     16  O   UNL     1      15.296   2.240  25.609  0.00  0.00    +0.000 OA
ATOM     17  H   UNL     1      10.983   2.613  23.452  0.00  0.00    +0.000 HD
ENDBRANCH  15  16
ENDBRANCH  11  15
BRANCH  12  18
ATOM     18  C   UNL     1      11.916   1.664  24.641  0.00  0.00    +0.000 C 
BRANCH  18  19
ATOM     19  S   UNL     1      12.831   0.471  23.652  0.00  0.00    +0.000 S 
BRANCH  19  21
ATOM     20  N   UNL     1       9.502  -1.737  21.532  0.00  0.00    +0.000 N 
ATOM     21  C   UNL     1      11.510  -0.403  22.812  0.00  0.00    +0.000 A 
ATOM     22  C   UNL     1      10.271  -0.556  23.428  0.00  0.00    +0.000 A 
ATOM     23  C   UNL     1      11.723  -0.932  21.543  0.00  0.00    +0.000 A 
ATOM     24  C   UNL     1       9.269  -1.238  22.754  0.00  0.00    +0.000 A 
ATOM     25  C   UNL     1      10.683  -1.605  20.917  0.00  0.00    +0.000 A 
ATOM     26  C   UNL     1       8.427  -2.450  20.847  0.00  0.00    +0.000 C 
ENDBRANCH  19  21
ENDBRANCH  18  19
ENDBRANCH  12  18
ENDBRANCH   2   9
BRANCH   3  28
ATOM     27  N   UNL     1      16.712   9.080  20.672  0.00  0.00    +0.000 NA
ATOM     28  C   UNL     1      16.594   8.043  21.445  0.00  0.00    +0.000 C 
BRANCH  28  32
ATOM     29  S   UNL     1      18.966   4.881  20.959  0.00  0.00    +0.000 S 
ATOM     30  N   UNL     1      16.648   5.825  20.317  0.00  0.00    +0.000 NA
ATOM     31  N   UNL     1      17.140   3.685  19.440  0.00  0.00    +0.000 N 
ATOM     32  C   UNL     1      17.275   6.763  21.114  0.00  0.00    +0.000 A 
ATOM     33  C   UNL     1      18.537   6.429  21.558  0.00  0.00    +0.000 A 
ATOM     34  C   UNL     1      17.447   4.792  20.169  0.00  0.00    +0.000 A 
ATOM     35  H   UNL     1      18.433  10.151  19.597  0.00  0.00    +0.000 HD
ATOM     36  H   UNL     1      18.433  10.151  19.597  0.00  0.00    +0.000 HD
ENDBRANCH  28  32
BRANCH  27  37
ATOM     37  O   UNL     1      17.524   8.811  19.562  0.00  0.00    +0.000 OA
BRANCH  37  38
ATOM     38  C   UNL     1      18.393   9.941  19.366  0.00  0.00    +0.000 C 
ATOM     39  C   UNL     1      19.761   9.588  18.746  0.00  0.00    +0.000 C 
ATOM     40  C   UNL     1      19.163  10.375  20.630  0.00  0.00    +0.000 C 
ATOM     41  C   UNL     1      20.281   9.409  20.187  0.00  0.00    +0.000 C 
BRANCH  38  43
ATOM     42  O   UNL     1      17.531  12.243  19.017  0.00  0.00    +0.000 OA
ATOM     43  C   UNL     1      17.612  11.075  18.644  0.00  0.00    +0.000 C 
BRANCH  43  44
ATOM     44  O   UNL     1      16.999  10.639  17.510  0.00  0.00    +0.000 OA
ATOM     45  H   UNL     1      22.638  12.990  15.880  0.00  0.00    +0.000 HD
ENDBRANCH  43  44
ENDBRANCH  38  43
ENDBRANCH  37  38
ENDBRANCH  27  37
ENDBRANCH   3  28
TORSDOF 12
ENDMDL
