MODEL 1
REMARK minimizedAffinity -8.17863655
REMARK minimizedRMSD -1
REMARK  Name = 117607705
REMARK  12 active torsions:
REMARK  status: ('A' for Active; 'I' for Inactive)
REMARK    1  A    between atoms: S_2  and  C_25
REMARK    2  A    between atoms: S_2  and  C_30
REMARK    3  A    between atoms: O_5  and  C_26
REMARK    4  A    between atoms: O_8  and  N_13
REMARK    5  A    between atoms: O_8  and  C_35
REMARK    6  A    between atoms: N_12  and  CA_20
REMARK    7  A    between atoms: N_16  and  C_34
REMARK    8  A    between atoms: CA_22  and  C_26
REMARK    9  A    between atoms: C_23  and  C_25
REMARK   10  A    between atoms: C_27  and  C_28
REMARK   11  A    between atoms: C_28  and  C_29
REMARK   12  A    between atoms: C_33  and  C_36
REMARK                            x       y       z     vdW  Elec       q    Type
REMARK                         _______ _______ _______ _____ _____    ______ ____
ROOT
ATOM      1  S   UNL     1      15.897   5.248  22.963  0.00  0.00    +0.000 S 
ATOM      2  O   UNL     1      12.970   8.850  23.344  0.00  0.00    +0.000 OA
ATOM      3  N   UNL     1      15.053   7.749  23.283  0.00  0.00    +0.000 N 
ATOM      4  C   UNL     1      15.221   6.526  24.051  0.00  0.00    +0.000 C 
ATOM      5  CA  UNL     1      13.692   6.574  24.286  0.00  0.00    +0.000 C 
ATOM      6  C   UNL     1      13.755   7.964  23.590  0.00  0.00    +0.000 C 
ATOM      7  CA  UNL     1      16.037   8.320  22.540  0.00  0.00    +0.000 C 
ATOM      8  C   UNL     1      17.175   7.653  22.236  0.00  0.00    +0.000 C 
ATOM      9  C   UNL     1      17.414   6.192  22.604  0.00  0.00    +0.000 C 
ENDROOT
BRANCH   5  11
ATOM     10  O   UNL     1      12.792   3.933  25.234  0.00  0.00    +0.000 OA
ATOM     11  N   UNL     1      12.860   5.604  23.585  0.00  0.00    +0.000 N 
ATOM     12  C   UNL     1      12.500   4.383  24.138  0.00  0.00    +0.000 C 
ATOM     13  H   UNL     1      15.023   6.786  21.208  0.00  0.00    +0.000 HD
BRANCH  12  15
ATOM     14  N   UNL     1      12.161   2.913  22.228  0.00  0.00    +0.000 NA
ATOM     15  C   UNL     1      11.634   3.552  23.228  0.00  0.00    +0.000 C 
BRANCH  15  19
ATOM     16  S   UNL     1       7.888   2.780  24.339  0.00  0.00    +0.000 S 
ATOM     17  N   UNL     1       9.318   4.413  22.935  0.00  0.00    +0.000 NA
ATOM     18  N   UNL     1       6.996   4.860  22.942  0.00  0.00    +0.000 N 
ATOM     19  C   UNL     1      10.173   3.483  23.493  0.00  0.00    +0.000 A 
ATOM     20  C   UNL     1       9.582   2.520  24.285  0.00  0.00    +0.000 A 
ATOM     21  C   UNL     1       8.088   4.140  23.313  0.00  0.00    +0.000 A 
ATOM     22  H   UNL     1      10.915   8.419  24.579  0.00  0.00    +0.000 HD
ATOM     23  H   UNL     1      10.915   8.419  24.579  0.00  0.00    +0.000 HD
ENDBRANCH  15  19
BRANCH  14  24
ATOM     24  O   UNL     1      13.546   3.116  22.152  0.00  0.00    +0.000 OA
ATOM     25  C   UNL     1      14.137   1.939  21.624  0.00  0.00    +0.000 C 
ENDBRANCH  14  24
ENDBRANCH  12  15
ENDBRANCH   5  11
BRANCH   7  27
ATOM     26  OXT UNL     1      15.936  10.691  22.679  0.00  0.00    +0.000 OA
ATOM     27  C   UNL     1      15.784   9.675  22.029  0.00  0.00    +0.000 C 
BRANCH  27  28
ATOM     28  O   UNL     1      15.366   9.601  20.750  0.00  0.00    +0.000 OA
ATOM     29  H   UNL     1      17.654   7.800  24.216  0.00  0.00    +0.000 HD
ENDBRANCH  27  28
ENDBRANCH   7  27
BRANCH   8  30
ATOM     30  C   UNL     1      18.345   8.248  21.488  0.00  0.00    +0.000 C 
BRANCH  30  31
ATOM     31  S   UNL     1      18.439   7.515  19.847  0.00  0.00    +0.000 S 
BRANCH  31  35
ATOM     32  O   UNL     1      18.942   7.362  17.102  0.00  0.00    +0.000 OA
ATOM     33  N   UNL     1      20.733   7.509  18.632  0.00  0.00    +0.000 N 
ATOM     34  N   UNL     1      20.809   6.511  20.751  0.00  0.00    +0.000 NA
ATOM     35  C   UNL     1      20.146   7.105  19.823  0.00  0.00    +0.000 C 
ATOM     36  C   UNL     1      20.100   7.602  17.400  0.00  0.00    +0.000 C 
ATOM     37  C   UNL     1      22.226   6.238  20.573  0.00  0.00    +0.000 C 
ATOM     38  H   UNL     1      14.881   7.918  20.259  0.00  0.00    +0.000 HD
BRANCH  36  41
ATOM     39  O   UNL     1      20.521   8.621  15.333  0.00  0.00    +0.000 OA
ATOM     40  N   UNL     1      22.338   7.874  16.583  0.00  0.00    +0.000 N 
ATOM     41  C   UNL     1      21.012   8.099  16.320  0.00  0.00    +0.000 C 
ATOM     42  H   UNL     1      14.602   6.237  19.251  0.00  0.00    +0.000 HD
ATOM     43  H   UNL     1      14.602   6.237  19.251  0.00  0.00    +0.000 HD
ENDBRANCH  36  41
ENDBRANCH  31  35
ENDBRANCH  30  31
ENDBRANCH   8  30
TORSDOF 10
ENDMDL
MODEL 2
REMARK minimizedAffinity -8.17124653
REMARK minimizedRMSD -1
REMARK  Name = 117607705
REMARK  12 active torsions:
REMARK  status: ('A' for Active; 'I' for Inactive)
REMARK    1  A    between atoms: S_2  and  C_25
REMARK    2  A    between atoms: S_2  and  C_30
REMARK    3  A    between atoms: O_5  and  C_26
REMARK    4  A    between atoms: O_8  and  N_13
REMARK    5  A    between atoms: O_8  and  C_35
REMARK    6  A    between atoms: N_12  and  CA_20
REMARK    7  A    between atoms: N_16  and  C_34
REMARK    8  A    between atoms: CA_22  and  C_26
REMARK    9  A    between atoms: C_23  and  C_25
REMARK   10  A    between atoms: C_27  and  C_28
REMARK   11  A    between atoms: C_28  and  C_29
REMARK   12  A    between atoms: C_33  and  C_36
REMARK                            x       y       z     vdW  Elec       q    Type
REMARK                         _______ _______ _______ _____ _____    ______ ____
ROOT
ATOM      1  S   UNL     1      20.836   7.639  20.356  0.00  0.00    +0.000 S 
ATOM      2  O   UNL     1      19.651  10.350  16.760  0.00  0.00    +0.000 OA
ATOM      3  N   UNL     1      19.305   8.900  18.587  0.00  0.00    +0.000 N 
ATOM      4  C   UNL     1      20.123   7.704  18.695  0.00  0.00    +0.000 C 
ATOM      5  CA  UNL     1      20.971   8.292  17.540  0.00  0.00    +0.000 C 
ATOM      6  C   UNL     1      19.876   9.395  17.466  0.00  0.00    +0.000 C 
ATOM      7  CA  UNL     1      18.325   9.232  19.467  0.00  0.00    +0.000 C 
ATOM      8  C   UNL     1      18.211   8.616  20.667  0.00  0.00    +0.000 C 
ATOM      9  C   UNL     1      19.211   7.583  21.178  0.00  0.00    +0.000 C 
ENDROOT
BRANCH   5  11
ATOM     10  O   UNL     1      23.538   6.846  17.474  0.00  0.00    +0.000 OA
ATOM     11  N   UNL     1      22.299   8.803  17.858  0.00  0.00    +0.000 N 
ATOM     12  C   UNL     1      23.442   8.021  17.790  0.00  0.00    +0.000 C 
ATOM     13  H   UNL     1      20.252  10.121  20.267  0.00  0.00    +0.000 HD
BRANCH  12  15
ATOM     14  N   UNL     1      25.484   9.224  17.232  0.00  0.00    +0.000 NA
ATOM     15  C   UNL     1      24.696   8.769  18.159  0.00  0.00    +0.000 C 
BRANCH  15  19
ATOM     16  S   UNL     1      25.874   8.655  21.963  0.00  0.00    +0.000 S 
ATOM     17  N   UNL     1      24.604  10.115  20.249  0.00  0.00    +0.000 NA
ATOM     18  N   UNL     1      24.762  11.026  22.426  0.00  0.00    +0.000 N 
ATOM     19  C   UNL     1      25.015   8.970  19.597  0.00  0.00    +0.000 A 
ATOM     20  C   UNL     1      25.717   8.061  20.361  0.00  0.00    +0.000 A 
ATOM     21  C   UNL     1      25.001  10.058  21.502  0.00  0.00    +0.000 A 
ATOM     22  H   UNL     1      26.622  13.481  17.820  0.00  0.00    +0.000 HD
ATOM     23  H   UNL     1      26.622  13.481  17.820  0.00  0.00    +0.000 HD
ENDBRANCH  15  19
BRANCH  14  24
ATOM     24  O   UNL     1      25.006   8.922  15.949  0.00  0.00    +0.000 OA
ATOM     25  C   UNL     1      25.447   9.938  15.063  0.00  0.00    +0.000 C 
ENDBRANCH  14  24
ENDBRANCH  12  15
ENDBRANCH   5  11
BRANCH   7  27
ATOM     26  OXT UNL     1      16.302  10.183  18.659  0.00  0.00    +0.000 OA
ATOM     27  C   UNL     1      17.430  10.334  19.084  0.00  0.00    +0.000 C 
BRANCH  27  28
ATOM     28  O   UNL     1      18.059  11.510  19.279  0.00  0.00    +0.000 OA
ATOM     29  H   UNL     1      17.577   7.129  20.309  0.00  0.00    +0.000 HD
ENDBRANCH  27  28
ENDBRANCH   7  27
BRANCH   8  30
ATOM     30  C   UNL     1      17.102   8.871  21.661  0.00  0.00    +0.000 C 
BRANCH  30  31
ATOM     31  S   UNL     1      16.918   7.436  22.731  0.00  0.00    +0.000 S 
BRANCH  31  35
ATOM     32  O   UNL     1      14.476   8.134  23.895  0.00  0.00    +0.000 OA
ATOM     33  N   UNL     1      14.528   7.094  21.779  0.00  0.00    +0.000 N 
ATOM     34  N   UNL     1      16.035   5.429  21.107  0.00  0.00    +0.000 NA
ATOM     35  C   UNL     1      15.786   6.509  21.760  0.00  0.00    +0.000 C 
ATOM     36  C   UNL     1      13.988   7.840  22.817  0.00  0.00    +0.000 C 
ATOM     37  C   UNL     1      14.978   4.776  20.351  0.00  0.00    +0.000 C 
ATOM     38  H   UNL     1      19.523   8.844  24.786  0.00  0.00    +0.000 HD
BRANCH  36  41
ATOM     39  O   UNL     1      12.397   9.548  22.629  0.00  0.00    +0.000 OA
ATOM     40  N   UNL     1      11.741   7.371  22.124  0.00  0.00    +0.000 N 
ATOM     41  C   UNL     1      12.616   8.354  22.505  0.00  0.00    +0.000 C 
ATOM     42  H   UNL     1      19.390   8.726  25.173  0.00  0.00    +0.000 HD
ATOM     43  H   UNL     1      19.390   8.726  25.173  0.00  0.00    +0.000 HD
ENDBRANCH  36  41
ENDBRANCH  31  35
ENDBRANCH  30  31
ENDBRANCH   8  30
TORSDOF 10
ENDMDL
MODEL 3
REMARK minimizedAffinity -8.13393688
REMARK minimizedRMSD -1
REMARK  Name = 117607705
REMARK  12 active torsions:
REMARK  status: ('A' for Active; 'I' for Inactive)
REMARK    1  A    between atoms: S_2  and  C_25
REMARK    2  A    between atoms: S_2  and  C_30
REMARK    3  A    between atoms: O_5  and  C_26
REMARK    4  A    between atoms: O_8  and  N_13
REMARK    5  A    between atoms: O_8  and  C_35
REMARK    6  A    between atoms: N_12  and  CA_20
REMARK    7  A    between atoms: N_16  and  C_34
REMARK    8  A    between atoms: CA_22  and  C_26
REMARK    9  A    between atoms: C_23  and  C_25
REMARK   10  A    between atoms: C_27  and  C_28
REMARK   11  A    between atoms: C_28  and  C_29
REMARK   12  A    between atoms: C_33  and  C_36
REMARK                            x       y       z     vdW  Elec       q    Type
REMARK                         _______ _______ _______ _____ _____    ______ ____
ROOT
ATOM      1  S   UNL     1      15.801   4.864  23.230  0.00  0.00    +0.000 S 
ATOM      2  O   UNL     1      12.776   8.288  24.131  0.00  0.00    +0.000 OA
ATOM      3  N   UNL     1      14.889   7.292  23.816  0.00  0.00    +0.000 N 
ATOM      4  C   UNL     1      15.169   6.023  24.468  0.00  0.00    +0.000 C 
ATOM      5  CA  UNL     1      13.663   5.982  24.827  0.00  0.00    +0.000 C 
ATOM      6  C   UNL     1      13.614   7.423  24.242  0.00  0.00    +0.000 C 
ATOM      7  CA  UNL     1      15.784   7.963  23.045  0.00  0.00    +0.000 C 
ATOM      8  C   UNL     1      16.919   7.374  22.599  0.00  0.00    +0.000 C 
ATOM      9  C   UNL     1      17.246   5.901  22.829  0.00  0.00    +0.000 C 
ENDROOT
BRANCH   5  11
ATOM     10  O   UNL     1      12.650   3.387  25.787  0.00  0.00    +0.000 OA
ATOM     11  N   UNL     1      12.816   5.031  24.119  0.00  0.00    +0.000 N 
ATOM     12  C   UNL     1      12.399   3.832  24.678  0.00  0.00    +0.000 C 
ATOM     13  H   UNL     1      15.075   6.105  21.779  0.00  0.00    +0.000 HD
BRANCH  12  15
ATOM     14  N   UNL     1      12.063   2.216  22.889  0.00  0.00    +0.000 NA
ATOM     15  C   UNL     1      11.527   3.018  23.759  0.00  0.00    +0.000 C 
BRANCH  15  19
ATOM     16  S   UNL     1       7.617   2.812  24.488  0.00  0.00    +0.000 S 
ATOM     17  N   UNL     1       9.390   4.142  23.158  0.00  0.00    +0.000 NA
ATOM     18  N   UNL     1       7.161   4.880  22.878  0.00  0.00    +0.000 N 
ATOM     19  C   UNL     1      10.050   3.155  23.863  0.00  0.00    +0.000 A 
ATOM     20  C   UNL     1       9.258   2.336  24.639  0.00  0.00    +0.000 A 
ATOM     21  C   UNL     1       8.102   4.056  23.411  0.00  0.00    +0.000 A 
ATOM     22  H   UNL     1      11.332   8.023  24.729  0.00  0.00    +0.000 HD
ATOM     23  H   UNL     1      11.332   8.023  24.729  0.00  0.00    +0.000 HD
ENDBRANCH  15  19
BRANCH  14  24
ATOM     24  O   UNL     1      13.463   2.242  22.952  0.00  0.00    +0.000 OA
ATOM     25  C   UNL     1      13.969   1.874  21.677  0.00  0.00    +0.000 C 
ENDBRANCH  14  24
ENDBRANCH  12  15
ENDBRANCH   5  11
BRANCH   7  27
ATOM     26  OXT UNL     1      15.670  10.317  23.349  0.00  0.00    +0.000 OA
ATOM     27  C   UNL     1      15.437   9.340  22.666  0.00  0.00    +0.000 C 
BRANCH  27  28
ATOM     28  O   UNL     1      14.831   9.334  21.463  0.00  0.00    +0.000 OA
ATOM     29  H   UNL     1      17.645   7.381  24.421  0.00  0.00    +0.000 HD
ENDBRANCH  27  28
ENDBRANCH   7  27
BRANCH   8  30
ATOM     30  C   UNL     1      17.998   8.078  21.811  0.00  0.00    +0.000 C 
BRANCH  30  31
ATOM     31  S   UNL     1      18.080   7.378  20.155  0.00  0.00    +0.000 S 
BRANCH  31  35
ATOM     32  O   UNL     1      20.673   7.536  19.124  0.00  0.00    +0.000 OA
ATOM     33  N   UNL     1      18.948   8.859  18.208  0.00  0.00    +0.000 N 
ATOM     34  N   UNL     1      17.195   9.848  19.410  0.00  0.00    +0.000 NA
ATOM     35  C   UNL     1      17.999   8.862  19.221  0.00  0.00    +0.000 C 
ATOM     36  C   UNL     1      20.176   8.213  18.240  0.00  0.00    +0.000 C 
ATOM     37  C   UNL     1      17.261  11.016  18.545  0.00  0.00    +0.000 C 
ATOM     38  H   UNL     1      18.028   4.640  22.499  0.00  0.00    +0.000 HD
BRANCH  36  41
ATOM     39  O   UNL     1      20.360   8.298  15.907  0.00  0.00    +0.000 OA
ATOM     40  N   UNL     1      22.287   8.608  17.175  0.00  0.00    +0.000 N 
ATOM     41  C   UNL     1      20.951   8.386  16.970  0.00  0.00    +0.000 C 
ATOM     42  H   UNL     1      15.163   6.566  21.012  0.00  0.00    +0.000 HD
ATOM     43  H   UNL     1      15.163   6.566  21.012  0.00  0.00    +0.000 HD
ENDBRANCH  36  41
ENDBRANCH  31  35
ENDBRANCH  30  31
ENDBRANCH   8  30
TORSDOF 10
ENDMDL
MODEL 4
REMARK minimizedAffinity -8.00009537
REMARK minimizedRMSD -1
REMARK  Name = 117607705
REMARK  12 active torsions:
REMARK  status: ('A' for Active; 'I' for Inactive)
REMARK    1  A    between atoms: S_2  and  C_25
REMARK    2  A    between atoms: S_2  and  C_30
REMARK    3  A    between atoms: O_5  and  C_26
REMARK    4  A    between atoms: O_8  and  N_13
REMARK    5  A    between atoms: O_8  and  C_35
REMARK    6  A    between atoms: N_12  and  CA_20
REMARK    7  A    between atoms: N_16  and  C_34
REMARK    8  A    between atoms: CA_22  and  C_26
REMARK    9  A    between atoms: C_23  and  C_25
REMARK   10  A    between atoms: C_27  and  C_28
REMARK   11  A    between atoms: C_28  and  C_29
REMARK   12  A    between atoms: C_33  and  C_36
REMARK                            x       y       z     vdW  Elec       q    Type
REMARK                         _______ _______ _______ _____ _____    ______ ____
ROOT
ATOM      1  S   UNL     1      20.571   8.036  20.576  0.00  0.00    +0.000 S 
ATOM      2  O   UNL     1      19.482  10.464  16.754  0.00  0.00    +0.000 OA
ATOM      3  N   UNL     1      19.086   9.167  18.683  0.00  0.00    +0.000 N 
ATOM      4  C   UNL     1      19.889   7.975  18.901  0.00  0.00    +0.000 C 
ATOM      5  CA  UNL     1      20.765   8.462  17.721  0.00  0.00    +0.000 C 
ATOM      6  C   UNL     1      19.684   9.566  17.538  0.00  0.00    +0.000 C 
ATOM      7  CA  UNL     1      18.094   9.577  19.515  0.00  0.00    +0.000 C 
ATOM      8  C   UNL     1      17.950   9.060  20.757  0.00  0.00    +0.000 C 
ATOM      9  C   UNL     1      18.929   8.061  21.368  0.00  0.00    +0.000 C 
ENDROOT
BRANCH   5  11
ATOM     10  O   UNL     1      23.332   7.014  17.717  0.00  0.00    +0.000 OA
ATOM     11  N   UNL     1      22.092   8.984  18.023  0.00  0.00    +0.000 N 
ATOM     12  C   UNL     1      23.236   8.200  17.988  0.00  0.00    +0.000 C 
ATOM     13  H   UNL     1      20.038  10.393  20.374  0.00  0.00    +0.000 HD
BRANCH  12  15
ATOM     14  N   UNL     1      25.259   9.414  17.389  0.00  0.00    +0.000 NA
ATOM     15  C   UNL     1      24.489   8.961  18.332  0.00  0.00    +0.000 C 
BRANCH  15  19
ATOM     16  S   UNL     1      25.213  10.235  22.036  0.00  0.00    +0.000 S 
ATOM     17  N   UNL     1      25.265   8.125  20.543  0.00  0.00    +0.000 NA
ATOM     18  N   UNL     1      25.945   7.790  22.783  0.00  0.00    +0.000 N 
ATOM     19  C   UNL     1      24.827   9.177  19.764  0.00  0.00    +0.000 A 
ATOM     20  C   UNL     1      24.735  10.399  20.397  0.00  0.00    +0.000 A 
ATOM     21  C   UNL     1      25.500   8.566  21.760  0.00  0.00    +0.000 A 
ATOM     22  H   UNL     1      21.769   5.121  20.304  0.00  0.00    +0.000 HD
ATOM     23  H   UNL     1      21.769   5.121  20.304  0.00  0.00    +0.000 HD
ENDBRANCH  15  19
BRANCH  14  24
ATOM     24  O   UNL     1      24.765   9.097  16.116  0.00  0.00    +0.000 OA
ATOM     25  C   UNL     1      25.509   9.834  15.158  0.00  0.00    +0.000 C 
ENDBRANCH  14  24
ENDBRANCH  12  15
ENDBRANCH   5  11
BRANCH   7  27
ATOM     26  OXT UNL     1      16.082  10.485  18.633  0.00  0.00    +0.000 OA
ATOM     27  C   UNL     1      17.218  10.653  19.028  0.00  0.00    +0.000 C 
BRANCH  27  28
ATOM     28  O   UNL     1      17.875  11.828  19.092  0.00  0.00    +0.000 OA
ATOM     29  H   UNL     1      17.311   7.591  20.580  0.00  0.00    +0.000 HD
ENDBRANCH  27  28
ENDBRANCH   7  27
BRANCH   8  30
ATOM     30  C   UNL     1      16.826   9.404  21.706  0.00  0.00    +0.000 C 
BRANCH  30  31
ATOM     31  S   UNL     1      16.428   7.961  22.706  0.00  0.00    +0.000 S 
BRANCH  31  35
ATOM     32  O   UNL     1      15.700   5.811  24.337  0.00  0.00    +0.000 OA
ATOM     33  N   UNL     1      14.165   7.551  23.910  0.00  0.00    +0.000 N 
ATOM     34  N   UNL     1      13.936   8.710  21.885  0.00  0.00    +0.000 NA
ATOM     35  C   UNL     1      14.681   8.135  22.762  0.00  0.00    +0.000 C 
ATOM     36  C   UNL     1      14.701   6.465  24.587  0.00  0.00    +0.000 C 
ATOM     37  C   UNL     1      12.496   8.765  22.079  0.00  0.00    +0.000 C 
ATOM     38  H   UNL     1      19.952   7.638  22.024  0.00  0.00    +0.000 HD
BRANCH  36  41
ATOM     39  O   UNL     1      13.540   6.995  26.551  0.00  0.00    +0.000 OA
ATOM     40  N   UNL     1      13.727   4.752  25.952  0.00  0.00    +0.000 N 
ATOM     41  C   UNL     1      13.914   6.102  25.809  0.00  0.00    +0.000 C 
ATOM     42  H   UNL     1      17.756  10.522  21.467  0.00  0.00    +0.000 HD
ATOM     43  H   UNL     1      17.756  10.522  21.467  0.00  0.00    +0.000 HD
ENDBRANCH  36  41
ENDBRANCH  31  35
ENDBRANCH  30  31
ENDBRANCH   8  30
TORSDOF 10
ENDMDL
MODEL 5
REMARK minimizedAffinity -7.54764462
REMARK minimizedRMSD -1
REMARK  Name = 117607705
REMARK  12 active torsions:
REMARK  status: ('A' for Active; 'I' for Inactive)
REMARK    1  A    between atoms: S_2  and  C_25
REMARK    2  A    between atoms: S_2  and  C_30
REMARK    3  A    between atoms: O_5  and  C_26
REMARK    4  A    between atoms: O_8  and  N_13
REMARK    5  A    between atoms: O_8  and  C_35
REMARK    6  A    between atoms: N_12  and  CA_20
REMARK    7  A    between atoms: N_16  and  C_34
REMARK    8  A    between atoms: CA_22  and  C_26
REMARK    9  A    between atoms: C_23  and  C_25
REMARK   10  A    between atoms: C_27  and  C_28
REMARK   11  A    between atoms: C_28  and  C_29
REMARK   12  A    between atoms: C_33  and  C_36
REMARK                            x       y       z     vdW  Elec       q    Type
REMARK                         _______ _______ _______ _____ _____    ______ ____
ROOT
ATOM      1  S   UNL     1      18.898   7.286  21.493  0.00  0.00    +0.000 S 
ATOM      2  O   UNL     1      16.453  10.190  18.795  0.00  0.00    +0.000 OA
ATOM      3  N   UNL     1      18.378   9.255  19.784  0.00  0.00    +0.000 N 
ATOM      4  C   UNL     1      18.374   8.995  21.214  0.00  0.00    +0.000 C 
ATOM      5  CA  UNL     1      16.860   9.315  21.174  0.00  0.00    +0.000 C 
ATOM      6  C   UNL     1      17.113   9.722  19.694  0.00  0.00    +0.000 C 
ATOM      7  CA  UNL     1      19.439   9.013  18.971  0.00  0.00    +0.000 C 
ATOM      8  C   UNL     1      20.487   8.258  19.377  0.00  0.00    +0.000 C 
ATOM      9  C   UNL     1      20.530   7.537  20.722  0.00  0.00    +0.000 C 
ENDROOT
BRANCH   5  11
ATOM     10  O   UNL     1      15.669   8.273  23.660  0.00  0.00    +0.000 OA
ATOM     11  N   UNL     1      15.922   8.209  21.327  0.00  0.00    +0.000 N 
ATOM     12  C   UNL     1      15.427   7.807  22.558  0.00  0.00    +0.000 C 
ATOM     13  H   UNL     1      18.200   7.116  19.014  0.00  0.00    +0.000 HD
BRANCH  12  15
ATOM     14  N   UNL     1      13.225   6.798  22.799  0.00  0.00    +0.000 NA
ATOM     15  C   UNL     1      14.471   6.647  22.464  0.00  0.00    +0.000 C 
BRANCH  15  19
ATOM     16  S   UNL     1      15.234   3.122  20.774  0.00  0.00    +0.000 S 
ATOM     17  N   UNL     1      16.162   4.822  22.485  0.00  0.00    +0.000 NA
ATOM     18  N   UNL     1      17.479   2.882  22.179  0.00  0.00    +0.000 N 
ATOM     19  C   UNL     1      14.980   5.334  21.988  0.00  0.00    +0.000 A 
ATOM     20  C   UNL     1      14.333   4.555  21.051  0.00  0.00    +0.000 A 
ATOM     21  C   UNL     1      16.395   3.659  21.916  0.00  0.00    +0.000 A 
ATOM     22  H   UNL     1      19.250   8.072  21.388  0.00  0.00    +0.000 HD
ATOM     23  H   UNL     1      19.250   8.072  21.388  0.00  0.00    +0.000 HD
ENDBRANCH  15  19
BRANCH  14  24
ATOM     24  O   UNL     1      12.955   8.105  23.225  0.00  0.00    +0.000 OA
ATOM     25  C   UNL     1      12.405   8.822  22.130  0.00  0.00    +0.000 C 
ENDBRANCH  14  24
ENDBRANCH  12  15
ENDBRANCH   5  11
BRANCH   7  27
ATOM     26  OXT UNL     1      19.596  10.717  17.322  0.00  0.00    +0.000 OA
ATOM     27  C   UNL     1      19.372   9.558  17.607  0.00  0.00    +0.000 C 
BRANCH  27  28
ATOM     28  O   UNL     1      19.027   8.577  16.750  0.00  0.00    +0.000 OA
ATOM     29  H   UNL     1      20.883   9.848  20.678  0.00  0.00    +0.000 HD
ENDBRANCH  27  28
ENDBRANCH   7  27
BRANCH   8  30
ATOM     30  C   UNL     1      21.736   8.015  18.564  0.00  0.00    +0.000 C 
BRANCH  30  31
ATOM     31  S   UNL     1      23.184   8.334  19.585  0.00  0.00    +0.000 S 
BRANCH  31  35
ATOM     32  O   UNL     1      24.426  10.443  20.935  0.00  0.00    +0.000 OA
ATOM     33  N   UNL     1      25.341   9.617  18.923  0.00  0.00    +0.000 N 
ATOM     34  N   UNL     1      24.120   8.851  17.075  0.00  0.00    +0.000 NA
ATOM     35  C   UNL     1      24.264   8.958  18.349  0.00  0.00    +0.000 C 
ATOM     36  C   UNL     1      25.336  10.289  20.138  0.00  0.00    +0.000 C 
ATOM     37  C   UNL     1      25.108   9.432  16.180  0.00  0.00    +0.000 C 
ATOM     38  H   UNL     1      20.561   7.095  21.724  0.00  0.00    +0.000 HD
BRANCH  36  41
ATOM     39  O   UNL     1      26.768  11.576  21.471  0.00  0.00    +0.000 OA
ATOM     40  N   UNL     1      27.658  10.527  19.592  0.00  0.00    +0.000 N 
ATOM     41  C   UNL     1      26.674  10.867  20.483  0.00  0.00    +0.000 C 
ATOM     42  H   UNL     1      19.434  10.156  20.959  0.00  0.00    +0.000 HD
ATOM     43  H   UNL     1      19.434  10.156  20.959  0.00  0.00    +0.000 HD
ENDBRANCH  36  41
ENDBRANCH  31  35
ENDBRANCH  30  31
ENDBRANCH   8  30
TORSDOF 10
ENDMDL
MODEL 6
REMARK minimizedAffinity -7.5331974
REMARK minimizedRMSD -1
REMARK  Name = 117607705
REMARK  12 active torsions:
REMARK  status: ('A' for Active; 'I' for Inactive)
REMARK    1  A    between atoms: S_2  and  C_25
REMARK    2  A    between atoms: S_2  and  C_30
REMARK    3  A    between atoms: O_5  and  C_26
REMARK    4  A    between atoms: O_8  and  N_13
REMARK    5  A    between atoms: O_8  and  C_35
REMARK    6  A    between atoms: N_12  and  CA_20
REMARK    7  A    between atoms: N_16  and  C_34
REMARK    8  A    between atoms: CA_22  and  C_26
REMARK    9  A    between atoms: C_23  and  C_25
REMARK   10  A    between atoms: C_27  and  C_28
REMARK   11  A    between atoms: C_28  and  C_29
REMARK   12  A    between atoms: C_33  and  C_36
REMARK                            x       y       z     vdW  Elec       q    Type
REMARK                         _______ _______ _______ _____ _____    ______ ____
ROOT
ATOM      1  S   UNL     1      18.612   7.658  21.684  0.00  0.00    +0.000 S 
ATOM      2  O   UNL     1      16.506  10.378  18.545  0.00  0.00    +0.000 OA
ATOM      3  N   UNL     1      18.315   9.385  19.684  0.00  0.00    +0.000 N 
ATOM      4  C   UNL     1      18.294   9.354  21.138  0.00  0.00    +0.000 C 
ATOM      5  CA  UNL     1      16.828   9.842  21.034  0.00  0.00    +0.000 C 
ATOM      6  C   UNL     1      17.115   9.981  19.511  0.00  0.00    +0.000 C 
ATOM      7  CA  UNL     1      19.332   8.894  18.929  0.00  0.00    +0.000 C 
ATOM      8  C   UNL     1      20.285   8.092  19.457  0.00  0.00    +0.000 C 
ATOM      9  C   UNL     1      20.255   7.589  20.898  0.00  0.00    +0.000 C 
ENDROOT
BRANCH   5  11
ATOM     10  O   UNL     1      15.109   9.768  23.426  0.00  0.00    +0.000 OA
ATOM     11  N   UNL     1      15.767   8.894  21.349  0.00  0.00    +0.000 N 
ATOM     12  C   UNL     1      15.020   8.961  22.516  0.00  0.00    +0.000 C 
ATOM     13  H   UNL     1      18.292   6.983  20.044  0.00  0.00    +0.000 HD
BRANCH  12  15
ATOM     14  N   UNL     1      12.744   8.126  22.299  0.00  0.00    +0.000 NA
ATOM     15  C   UNL     1      13.978   7.878  22.617  0.00  0.00    +0.000 C 
BRANCH  15  19
ATOM     16  S   UNL     1      14.398   4.068  23.701  0.00  0.00    +0.000 S 
ATOM     17  N   UNL     1      15.661   6.321  23.584  0.00  0.00    +0.000 NA
ATOM     18  N   UNL     1      16.907   4.514  24.465  0.00  0.00    +0.000 N 
ATOM     19  C   UNL     1      14.389   6.529  23.090  0.00  0.00    +0.000 A 
ATOM     20  C   UNL     1      13.560   5.426  23.074  0.00  0.00    +0.000 A 
ATOM     21  C   UNL     1      15.779   5.059  23.937  0.00  0.00    +0.000 A 
ATOM     22  H   UNL     1      18.367   7.513  20.040  0.00  0.00    +0.000 HD
ATOM     23  H   UNL     1      18.367   7.513  20.040  0.00  0.00    +0.000 HD
ENDBRANCH  15  19
BRANCH  14  24
ATOM     24  O   UNL     1      12.569   9.454  21.886  0.00  0.00    +0.000 OA
ATOM     25  C   UNL     1      12.196   9.445  20.517  0.00  0.00    +0.000 C 
ENDBRANCH  14  24
ENDBRANCH  12  15
ENDBRANCH   5  11
BRANCH   7  27
ATOM     26  OXT UNL     1      19.538  10.330  17.046  0.00  0.00    +0.000 OA
ATOM     27  C   UNL     1      19.316   9.223  17.496  0.00  0.00    +0.000 C 
BRANCH  27  28
ATOM     28  O   UNL     1      19.022   8.117  16.785  0.00  0.00    +0.000 OA
ATOM     29  H   UNL     1      20.688  10.007  20.546  0.00  0.00    +0.000 HD
ENDBRANCH  27  28
ENDBRANCH   7  27
BRANCH   8  30
ATOM     30  C   UNL     1      21.488   7.577  18.703  0.00  0.00    +0.000 C 
BRANCH  30  31
ATOM     31  S   UNL     1      21.683   5.816  19.022  0.00  0.00    +0.000 S 
BRANCH  31  35
ATOM     32  O   UNL     1      19.608   4.328  20.157  0.00  0.00    +0.000 OA
ATOM     33  N   UNL     1      19.551   4.891  17.867  0.00  0.00    +0.000 N 
ATOM     34  N   UNL     1      21.404   4.996  16.435  0.00  0.00    +0.000 NA
ATOM     35  C   UNL     1      20.879   5.184  17.594  0.00  0.00    +0.000 C 
ATOM     36  C   UNL     1      19.035   4.497  19.093  0.00  0.00    +0.000 C 
ATOM     37  C   UNL     1      20.598   4.456  15.351  0.00  0.00    +0.000 C 
ATOM     38  H   UNL     1      23.812   6.908  21.718  0.00  0.00    +0.000 HD
BRANCH  36  41
ATOM     39  O   UNL     1      16.839   5.027  19.712  0.00  0.00    +0.000 OA
ATOM     40  N   UNL     1      17.174   3.230  18.269  0.00  0.00    +0.000 N 
ATOM     41  C   UNL     1      17.552   4.287  19.055  0.00  0.00    +0.000 C 
ATOM     42  H   UNL     1      23.790   7.092  21.580  0.00  0.00    +0.000 HD
ATOM     43  H   UNL     1      23.790   7.092  21.580  0.00  0.00    +0.000 HD
ENDBRANCH  36  41
ENDBRANCH  31  35
ENDBRANCH  30  31
ENDBRANCH   8  30
TORSDOF 10
ENDMDL
MODEL 7
REMARK minimizedAffinity -7.47162676
REMARK minimizedRMSD -1
REMARK  Name = 117607705
REMARK  12 active torsions:
REMARK  status: ('A' for Active; 'I' for Inactive)
REMARK    1  A    between atoms: S_2  and  C_25
REMARK    2  A    between atoms: S_2  and  C_30
REMARK    3  A    between atoms: O_5  and  C_26
REMARK    4  A    between atoms: O_8  and  N_13
REMARK    5  A    between atoms: O_8  and  C_35
REMARK    6  A    between atoms: N_12  and  CA_20
REMARK    7  A    between atoms: N_16  and  C_34
REMARK    8  A    between atoms: CA_22  and  C_26
REMARK    9  A    between atoms: C_23  and  C_25
REMARK   10  A    between atoms: C_27  and  C_28
REMARK   11  A    between atoms: C_28  and  C_29
REMARK   12  A    between atoms: C_33  and  C_36
REMARK                            x       y       z     vdW  Elec       q    Type
REMARK                         _______ _______ _______ _____ _____    ______ ____
ROOT
ATOM      1  S   UNL     1      15.758   4.729  23.453  0.00  0.00    +0.000 S 
ATOM      2  O   UNL     1      12.768   8.278  23.844  0.00  0.00    +0.000 OA
ATOM      3  N   UNL     1      14.871   7.214  23.778  0.00  0.00    +0.000 N 
ATOM      4  C   UNL     1      15.062   5.994  24.544  0.00  0.00    +0.000 C 
ATOM      5  CA  UNL     1      13.532   6.014  24.782  0.00  0.00    +0.000 C 
ATOM      6  C   UNL     1      13.569   7.406  24.088  0.00  0.00    +0.000 C 
ATOM      7  CA  UNL     1      15.843   7.804  23.035  0.00  0.00    +0.000 C 
ATOM      8  C   UNL     1      16.992   7.158  22.728  0.00  0.00    +0.000 C 
ATOM      9  C   UNL     1      17.258   5.700  23.093  0.00  0.00    +0.000 C 
ENDROOT
BRANCH   5  11
ATOM     10  O   UNL     1      12.593   3.400  25.767  0.00  0.00    +0.000 OA
ATOM     11  N   UNL     1      12.717   5.030  24.081  0.00  0.00    +0.000 N 
ATOM     12  C   UNL     1      12.335   3.825  24.652  0.00  0.00    +0.000 C 
ATOM     13  H   UNL     1      14.953   6.145  21.739  0.00  0.00    +0.000 HD
BRANCH  12  15
ATOM     14  N   UNL     1      12.056   2.156  22.902  0.00  0.00    +0.000 NA
ATOM     15  C   UNL     1      11.492   2.975  23.738  0.00  0.00    +0.000 C 
BRANCH  15  19
ATOM     16  S   UNL     1       7.563   2.687  24.328  0.00  0.00    +0.000 S 
ATOM     17  N   UNL     1       9.366   4.135  23.172  0.00  0.00    +0.000 NA
ATOM     18  N   UNL     1       7.140   4.883  22.889  0.00  0.00    +0.000 N 
ATOM     19  C   UNL     1      10.012   3.094  23.808  0.00  0.00    +0.000 A 
ATOM     20  C   UNL     1       9.202   2.207  24.487  0.00  0.00    +0.000 A 
ATOM     21  C   UNL     1       8.071   4.022  23.377  0.00  0.00    +0.000 A 
ATOM     22  H   UNL     1      11.230   7.876  25.130  0.00  0.00    +0.000 HD
ATOM     23  H   UNL     1      11.230   7.876  25.130  0.00  0.00    +0.000 HD
ENDBRANCH  15  19
BRANCH  14  24
ATOM     24  O   UNL     1      13.454   2.202  22.992  0.00  0.00    +0.000 OA
ATOM     25  C   UNL     1      13.989   1.880  21.717  0.00  0.00    +0.000 C 
ENDBRANCH  14  24
ENDBRANCH  12  15
ENDBRANCH   5  11
BRANCH   7  27
ATOM     26  OXT UNL     1      15.227   9.400  21.385  0.00  0.00    +0.000 OA
ATOM     27  C   UNL     1      15.565   9.155  22.526  0.00  0.00    +0.000 C 
BRANCH  27  28
ATOM     28  O   UNL     1      15.745  10.052  23.515  0.00  0.00    +0.000 OA
ATOM     29  H   UNL     1      14.800   5.821  22.211  0.00  0.00    +0.000 HD
ENDBRANCH  27  28
ENDBRANCH   7  27
BRANCH   8  30
ATOM     30  C   UNL     1      18.150   7.774  21.979  0.00  0.00    +0.000 C 
BRANCH  30  31
ATOM     31  S   UNL     1      18.465   6.826  20.482  0.00  0.00    +0.000 S 
BRANCH  31  35
ATOM     32  O   UNL     1      17.042   8.738  19.022  0.00  0.00    +0.000 OA
ATOM     33  N   UNL     1      19.323   9.079  19.518  0.00  0.00    +0.000 N 
ATOM     34  N   UNL     1      20.973   7.416  19.587  0.00  0.00    +0.000 NA
ATOM     35  C   UNL     1      19.765   7.795  19.807  0.00  0.00    +0.000 C 
ATOM     36  C   UNL     1      18.032   9.437  19.159  0.00  0.00    +0.000 C 
ATOM     37  C   UNL     1      21.934   8.345  19.015  0.00  0.00    +0.000 C 
ATOM     38  H   UNL     1      16.083   4.389  21.656  0.00  0.00    +0.000 HD
BRANCH  36  41
ATOM     39  O   UNL     1      18.878  11.615  18.991  0.00  0.00    +0.000 OA
ATOM     40  N   UNL     1      16.585  11.301  18.732  0.00  0.00    +0.000 N 
ATOM     41  C   UNL     1      17.882  10.912  18.943  0.00  0.00    +0.000 C 
ATOM     42  H   UNL     1      21.373   4.815  20.888  0.00  0.00    +0.000 HD
ATOM     43  H   UNL     1      21.373   4.815  20.888  0.00  0.00    +0.000 HD
ENDBRANCH  36  41
ENDBRANCH  31  35
ENDBRANCH  30  31
ENDBRANCH   8  30
TORSDOF 10
ENDMDL
MODEL 8
REMARK minimizedAffinity -7.46272516
REMARK minimizedRMSD -1
REMARK  Name = 117607705
REMARK  12 active torsions:
REMARK  status: ('A' for Active; 'I' for Inactive)
REMARK    1  A    between atoms: S_2  and  C_25
REMARK    2  A    between atoms: S_2  and  C_30
REMARK    3  A    between atoms: O_5  and  C_26
REMARK    4  A    between atoms: O_8  and  N_13
REMARK    5  A    between atoms: O_8  and  C_35
REMARK    6  A    between atoms: N_12  and  CA_20
REMARK    7  A    between atoms: N_16  and  C_34
REMARK    8  A    between atoms: CA_22  and  C_26
REMARK    9  A    between atoms: C_23  and  C_25
REMARK   10  A    between atoms: C_27  and  C_28
REMARK   11  A    between atoms: C_28  and  C_29
REMARK   12  A    between atoms: C_33  and  C_36
REMARK                            x       y       z     vdW  Elec       q    Type
REMARK                         _______ _______ _______ _____ _____    ______ ____
ROOT
ATOM      1  S   UNL     1      20.590   7.969  20.490  0.00  0.00    +0.000 S 
ATOM      2  O   UNL     1      19.467  10.395  16.676  0.00  0.00    +0.000 OA
ATOM      3  N   UNL     1      19.088   9.122  18.624  0.00  0.00    +0.000 N 
ATOM      4  C   UNL     1      19.867   7.913  18.832  0.00  0.00    +0.000 C 
ATOM      5  CA  UNL     1      20.726   8.370  17.627  0.00  0.00    +0.000 C 
ATOM      6  C   UNL     1      19.666   9.498  17.462  0.00  0.00    +0.000 C 
ATOM      7  CA  UNL     1      18.126   9.561  19.477  0.00  0.00    +0.000 C 
ATOM      8  C   UNL     1      18.001   9.056  20.726  0.00  0.00    +0.000 C 
ATOM      9  C   UNL     1      18.970   8.039  21.321  0.00  0.00    +0.000 C 
ENDROOT
BRANCH   5  11
ATOM     10  O   UNL     1      23.239   6.834  17.705  0.00  0.00    +0.000 OA
ATOM     11  N   UNL     1      22.071   8.863  17.893  0.00  0.00    +0.000 N 
ATOM     12  C   UNL     1      23.187   8.038  17.903  0.00  0.00    +0.000 C 
ATOM     13  H   UNL     1      20.080  10.484  20.159  0.00  0.00    +0.000 HD
BRANCH  12  15
ATOM     14  N   UNL     1      25.210   9.207  17.223  0.00  0.00    +0.000 NA
ATOM     15  C   UNL     1      24.467   8.773  18.196  0.00  0.00    +0.000 C 
BRANCH  15  19
ATOM     16  S   UNL     1      25.908   8.725  21.910  0.00  0.00    +0.000 S 
ATOM     17  N   UNL     1      24.396  10.082  20.311  0.00  0.00    +0.000 NA
ATOM     18  N   UNL     1      24.620  10.979  22.488  0.00  0.00    +0.000 N 
ATOM     19  C   UNL     1      24.864   8.987  19.613  0.00  0.00    +0.000 A 
ATOM     20  C   UNL     1      25.696   8.137  20.312  0.00  0.00    +0.000 A 
ATOM     21  C   UNL     1      24.882  10.047  21.534  0.00  0.00    +0.000 A 
ATOM     22  H   UNL     1      25.931  13.646  17.811  0.00  0.00    +0.000 HD
ATOM     23  H   UNL     1      25.931  13.646  17.811  0.00  0.00    +0.000 HD
ENDBRANCH  15  19
BRANCH  14  24
ATOM     24  O   UNL     1      24.661   8.897  15.971  0.00  0.00    +0.000 OA
ATOM     25  C   UNL     1      25.266   9.740  15.003  0.00  0.00    +0.000 C 
ENDBRANCH  14  24
ENDBRANCH  12  15
ENDBRANCH   5  11
BRANCH   7  27
ATOM     26  OXT UNL     1      16.135  10.502  18.583  0.00  0.00    +0.000 OA
ATOM     27  C   UNL     1      17.265  10.655  19.003  0.00  0.00    +0.000 C 
BRANCH  27  28
ATOM     28  O   UNL     1      17.925  11.824  19.111  0.00  0.00    +0.000 OA
ATOM     29  H   UNL     1      17.314   7.551  20.473  0.00  0.00    +0.000 HD
ENDBRANCH  27  28
ENDBRANCH   7  27
BRANCH   8  30
ATOM     30  C   UNL     1      16.908   9.433  21.699  0.00  0.00    +0.000 C 
BRANCH  30  31
ATOM     31  S   UNL     1      15.413   8.514  21.301  0.00  0.00    +0.000 S 
BRANCH  31  35
ATOM     32  O   UNL     1      15.972   5.986  20.248  0.00  0.00    +0.000 OA
ATOM     33  N   UNL     1      16.074   6.351  22.576  0.00  0.00    +0.000 N 
ATOM     34  N   UNL     1      14.651   7.750  23.807  0.00  0.00    +0.000 NA
ATOM     35  C   UNL     1      15.318   7.504  22.735  0.00  0.00    +0.000 C 
ATOM     36  C   UNL     1      16.333   5.703  21.378  0.00  0.00    +0.000 C 
ATOM     37  C   UNL     1      14.673   6.803  24.910  0.00  0.00    +0.000 C 
ATOM     38  H   UNL     1      15.096  10.784  18.519  0.00  0.00    +0.000 HD
BRANCH  36  41
ATOM     39  O   UNL     1      17.060   3.553  20.797  0.00  0.00    +0.000 OA
ATOM     40  N   UNL     1      18.090   4.615  22.595  0.00  0.00    +0.000 N 
ATOM     41  C   UNL     1      17.209   4.500  21.551  0.00  0.00    +0.000 C 
ATOM     42  H   UNL     1      11.544   8.252  18.912  0.00  0.00    +0.000 HD
ATOM     43  H   UNL     1      11.544   8.252  18.912  0.00  0.00    +0.000 HD
ENDBRANCH  36  41
ENDBRANCH  31  35
ENDBRANCH  30  31
ENDBRANCH   8  30
TORSDOF 10
ENDMDL
MODEL 9
REMARK minimizedAffinity -7.4411211
REMARK minimizedRMSD -1
REMARK  Name = 117607705
REMARK  12 active torsions:
REMARK  status: ('A' for Active; 'I' for Inactive)
REMARK    1  A    between atoms: S_2  and  C_25
REMARK    2  A    between atoms: S_2  and  C_30
REMARK    3  A    between atoms: O_5  and  C_26
REMARK    4  A    between atoms: O_8  and  N_13
REMARK    5  A    between atoms: O_8  and  C_35
REMARK    6  A    between atoms: N_12  and  CA_20
REMARK    7  A    between atoms: N_16  and  C_34
REMARK    8  A    between atoms: CA_22  and  C_26
REMARK    9  A    between atoms: C_23  and  C_25
REMARK   10  A    between atoms: C_27  and  C_28
REMARK   11  A    between atoms: C_28  and  C_29
REMARK   12  A    between atoms: C_33  and  C_36
REMARK                            x       y       z     vdW  Elec       q    Type
REMARK                         _______ _______ _______ _____ _____    ______ ____
ROOT
ATOM      1  S   UNL     1      17.673   6.157  20.323  0.00  0.00    +0.000 S 
ATOM      2  O   UNL     1      16.193  10.460  21.314  0.00  0.00    +0.000 OA
ATOM      3  N   UNL     1      17.658   8.811  20.481  0.00  0.00    +0.000 N 
ATOM      4  C   UNL     1      17.947   7.650  21.307  0.00  0.00    +0.000 C 
ATOM      5  CA  UNL     1      16.815   8.148  22.239  0.00  0.00    +0.000 C 
ATOM      6  C   UNL     1      16.789   9.408  21.327  0.00  0.00    +0.000 C 
ATOM      7  CA  UNL     1      18.200   9.023  19.253  0.00  0.00    +0.000 C 
ATOM      8  C   UNL     1      18.845   8.040  18.582  0.00  0.00    +0.000 C 
ATOM      9  C   UNL     1      18.935   6.602  19.084  0.00  0.00    +0.000 C 
ENDROOT
BRANCH   5  11
ATOM     10  O   UNL     1      15.109   7.497  24.552  0.00  0.00    +0.000 OA
ATOM     11  N   UNL     1      15.561   7.405  22.250  0.00  0.00    +0.000 N 
ATOM     12  C   UNL     1      14.842   7.159  23.410  0.00  0.00    +0.000 C 
ATOM     13  H   UNL     1      17.585   5.679  20.092  0.00  0.00    +0.000 HD
BRANCH  12  15
ATOM     14  N   UNL     1      12.438   6.991  23.067  0.00  0.00    +0.000 NA
ATOM     15  C   UNL     1      13.577   6.377  23.172  0.00  0.00    +0.000 C 
BRANCH  15  19
ATOM     16  S   UNL     1      14.409   2.483  23.274  0.00  0.00    +0.000 S 
ATOM     17  N   UNL     1      12.692   4.193  22.373  0.00  0.00    +0.000 NA
ATOM     18  N   UNL     1      12.239   1.935  21.836  0.00  0.00    +0.000 N 
ATOM     19  C   UNL     1      13.659   4.896  23.064  0.00  0.00    +0.000 A 
ATOM     20  C   UNL     1      14.670   4.142  23.622  0.00  0.00    +0.000 A 
ATOM     21  C   UNL     1      12.985   2.911  22.418  0.00  0.00    +0.000 A 
ATOM     22  H   UNL     1       8.807   5.284  24.613  0.00  0.00    +0.000 HD
ATOM     23  H   UNL     1       8.807   5.284  24.613  0.00  0.00    +0.000 HD
ENDBRANCH  15  19
BRANCH  14  24
ATOM     24  O   UNL     1      12.580   8.379  23.205  0.00  0.00    +0.000 OA
ATOM     25  C   UNL     1      12.487   8.963  21.915  0.00  0.00    +0.000 C 
ENDBRANCH  14  24
ENDBRANCH  12  15
ENDBRANCH   5  11
BRANCH   7  27
ATOM     26  OXT UNL     1      17.101  10.633  17.894  0.00  0.00    +0.000 OA
ATOM     27  C   UNL     1      18.002  10.353  18.659  0.00  0.00    +0.000 C 
BRANCH  27  28
ATOM     28  O   UNL     1      18.966  11.187  19.096  0.00  0.00    +0.000 OA
ATOM     29  H   UNL     1      16.434   7.487  19.719  0.00  0.00    +0.000 HD
ENDBRANCH  27  28
ENDBRANCH   7  27
BRANCH   8  30
ATOM     30  C   UNL     1      19.543   8.222  17.256  0.00  0.00    +0.000 C 
BRANCH  30  31
ATOM     31  S   UNL     1      21.298   7.874  17.454  0.00  0.00    +0.000 S 
BRANCH  31  35
ATOM     32  O   UNL     1      23.779   8.207  16.211  0.00  0.00    +0.000 OA
ATOM     33  N   UNL     1      22.729   6.095  16.217  0.00  0.00    +0.000 N 
ATOM     34  N   UNL     1      20.423   5.712  16.039  0.00  0.00    +0.000 NA
ATOM     35  C   UNL     1      21.405   6.417  16.479  0.00  0.00    +0.000 C 
ATOM     36  C   UNL     1      23.782   6.992  16.108  0.00  0.00    +0.000 C 
ATOM     37  C   UNL     1      20.682   4.528  15.235  0.00  0.00    +0.000 C 
ATOM     38  H   UNL     1      20.566  10.933  19.215  0.00  0.00    +0.000 HD
BRANCH  36  41
ATOM     39  O   UNL     1      25.095   5.265  15.226  0.00  0.00    +0.000 OA
ATOM     40  N   UNL     1      26.163   6.978  16.387  0.00  0.00    +0.000 N 
ATOM     41  C   UNL     1      25.092   6.314  15.849  0.00  0.00    +0.000 C 
ATOM     42  H   UNL     1      17.824   6.823  16.100  0.00  0.00    +0.000 HD
ATOM     43  H   UNL     1      17.824   6.823  16.100  0.00  0.00    +0.000 HD
ENDBRANCH  36  41
ENDBRANCH  31  35
ENDBRANCH  30  31
ENDBRANCH   8  30
TORSDOF 10
ENDMDL
MODEL 10
REMARK minimizedAffinity -7.41377592
REMARK minimizedRMSD -1
REMARK  Name = 117607705
REMARK  12 active torsions:
REMARK  status: ('A' for Active; 'I' for Inactive)
REMARK    1  A    between atoms: S_2  and  C_25
REMARK    2  A    between atoms: S_2  and  C_30
REMARK    3  A    between atoms: O_5  and  C_26
REMARK    4  A    between atoms: O_8  and  N_13
REMARK    5  A    between atoms: O_8  and  C_35
REMARK    6  A    between atoms: N_12  and  CA_20
REMARK    7  A    between atoms: N_16  and  C_34
REMARK    8  A    between atoms: CA_22  and  C_26
REMARK    9  A    between atoms: C_23  and  C_25
REMARK   10  A    between atoms: C_27  and  C_28
REMARK   11  A    between atoms: C_28  and  C_29
REMARK   12  A    between atoms: C_33  and  C_36
REMARK                            x       y       z     vdW  Elec       q    Type
REMARK                         _______ _______ _______ _____ _____    ______ ____
ROOT
ATOM      1  S   UNL     1      17.683   6.140  20.387  0.00  0.00    +0.000 S 
ATOM      2  O   UNL     1      16.168  10.450  21.295  0.00  0.00    +0.000 OA
ATOM      3  N   UNL     1      17.654   8.796  20.510  0.00  0.00    +0.000 N 
ATOM      4  C   UNL     1      17.933   7.648  21.356  0.00  0.00    +0.000 C 
ATOM      5  CA  UNL     1      16.782   8.153  22.262  0.00  0.00    +0.000 C 
ATOM      6  C   UNL     1      16.768   9.400  21.332  0.00  0.00    +0.000 C 
ATOM      7  CA  UNL     1      18.217   8.994  19.290  0.00  0.00    +0.000 C 
ATOM      8  C   UNL     1      18.877   8.006  18.643  0.00  0.00    +0.000 C 
ATOM      9  C   UNL     1      18.964   6.574  19.166  0.00  0.00    +0.000 C 
ENDROOT
BRANCH   5  11
ATOM     10  O   UNL     1      15.048   7.509  24.555  0.00  0.00    +0.000 OA
ATOM     11  N   UNL     1      15.532   7.404  22.260  0.00  0.00    +0.000 N 
ATOM     12  C   UNL     1      14.797   7.163  23.412  0.00  0.00    +0.000 C 
ATOM     13  H   UNL     1      17.591   5.674  20.140  0.00  0.00    +0.000 HD
BRANCH  12  15
ATOM     14  N   UNL     1      12.396   6.981  23.057  0.00  0.00    +0.000 NA
ATOM     15  C   UNL     1      13.540   6.374  23.161  0.00  0.00    +0.000 C 
BRANCH  15  19
ATOM     16  S   UNL     1      14.412   2.487  23.211  0.00  0.00    +0.000 S 
ATOM     17  N   UNL     1      12.651   4.186  22.376  0.00  0.00    +0.000 NA
ATOM     18  N   UNL     1      12.204   1.927  21.838  0.00  0.00    +0.000 N 
ATOM     19  C   UNL     1      13.632   4.894  23.040  0.00  0.00    +0.000 A 
ATOM     20  C   UNL     1      14.668   4.147  23.562  0.00  0.00    +0.000 A 
ATOM     21  C   UNL     1      12.958   2.907  22.402  0.00  0.00    +0.000 A 
ATOM     22  H   UNL     1       8.828   5.224  24.743  0.00  0.00    +0.000 HD
ATOM     23  H   UNL     1       8.828   5.224  24.743  0.00  0.00    +0.000 HD
ENDBRANCH  15  19
BRANCH  14  24
ATOM     24  O   UNL     1      12.528   8.368  23.207  0.00  0.00    +0.000 OA
ATOM     25  C   UNL     1      12.483   8.959  21.918  0.00  0.00    +0.000 C 
ENDBRANCH  14  24
ENDBRANCH  12  15
ENDBRANCH   5  11
BRANCH   7  27
ATOM     26  OXT UNL     1      17.168  10.568  17.850  0.00  0.00    +0.000 OA
ATOM     27  C   UNL     1      18.024  10.316  18.674  0.00  0.00    +0.000 C 
BRANCH  27  28
ATOM     28  O   UNL     1      18.935  11.177  19.168  0.00  0.00    +0.000 OA
ATOM     29  H   UNL     1      16.464   7.415  19.648  0.00  0.00    +0.000 HD
ENDBRANCH  27  28
ENDBRANCH   7  27
BRANCH   8  30
ATOM     30  C   UNL     1      19.599   8.173  17.327  0.00  0.00    +0.000 C 
BRANCH  30  31
ATOM     31  S   UNL     1      21.262   8.790  17.633  0.00  0.00    +0.000 S 
BRANCH  31  35
ATOM     32  O   UNL     1      22.500   8.327  20.095  0.00  0.00    +0.000 OA
ATOM     33  N   UNL     1      22.405   6.616  18.474  0.00  0.00    +0.000 N 
ATOM     34  N   UNL     1      22.582   6.915  16.156  0.00  0.00    +0.000 NA
ATOM     35  C   UNL     1      22.168   7.322  17.303  0.00  0.00    +0.000 C 
ATOM     36  C   UNL     1      22.548   7.161  19.742  0.00  0.00    +0.000 C 
ATOM     37  C   UNL     1      23.329   5.671  16.052  0.00  0.00    +0.000 C 
ATOM     38  H   UNL     1      19.649  12.007  17.837  0.00  0.00    +0.000 HD
BRANCH  36  41
ATOM     39  O   UNL     1      21.804   5.485  21.200  0.00  0.00    +0.000 OA
ATOM     40  N   UNL     1      24.070   6.022  21.203  0.00  0.00    +0.000 N 
ATOM     41  C   UNL     1      22.765   6.118  20.796  0.00  0.00    +0.000 C 
ATOM     42  H   UNL     1      18.811  10.546  16.565  0.00  0.00    +0.000 HD
ATOM     43  H   UNL     1      18.811  10.546  16.565  0.00  0.00    +0.000 HD
ENDBRANCH  36  41
ENDBRANCH  31  35
ENDBRANCH  30  31
ENDBRANCH   8  30
TORSDOF 10
ENDMDL
MODEL 11
REMARK minimizedAffinity -7.41167641
REMARK minimizedRMSD -1
REMARK  Name = 117607705
REMARK  12 active torsions:
REMARK  status: ('A' for Active; 'I' for Inactive)
REMARK    1  A    between atoms: S_2  and  C_25
REMARK    2  A    between atoms: S_2  and  C_30
REMARK    3  A    between atoms: O_5  and  C_26
REMARK    4  A    between atoms: O_8  and  N_13
REMARK    5  A    between atoms: O_8  and  C_35
REMARK    6  A    between atoms: N_12  and  CA_20
REMARK    7  A    between atoms: N_16  and  C_34
REMARK    8  A    between atoms: CA_22  and  C_26
REMARK    9  A    between atoms: C_23  and  C_25
REMARK   10  A    between atoms: C_27  and  C_28
REMARK   11  A    between atoms: C_28  and  C_29
REMARK   12  A    between atoms: C_33  and  C_36
REMARK                            x       y       z     vdW  Elec       q    Type
REMARK                         _______ _______ _______ _____ _____    ______ ____
ROOT
ATOM      1  S   UNL     1      19.789   6.746  20.053  0.00  0.00    +0.000 S 
ATOM      2  O   UNL     1      19.705  10.056  16.778  0.00  0.00    +0.000 OA
ATOM      3  N   UNL     1      18.839   8.656  18.466  0.00  0.00    +0.000 N 
ATOM      4  C   UNL     1      19.159   7.238  18.430  0.00  0.00    +0.000 C 
ATOM      5  CA  UNL     1      20.170   7.589  17.311  0.00  0.00    +0.000 C 
ATOM      6  C   UNL     1      19.558   9.018  17.380  0.00  0.00    +0.000 C 
ATOM      7  CA  UNL     1      18.047   9.232  19.406  0.00  0.00    +0.000 C 
ATOM      8  C   UNL     1      17.707   8.581  20.544  0.00  0.00    +0.000 C 
ATOM      9  C   UNL     1      18.253   7.207  20.919  0.00  0.00    +0.000 C 
ENDROOT
BRANCH   5  11
ATOM     10  O   UNL     1      22.265   5.944  16.050  0.00  0.00    +0.000 OA
ATOM     11  N   UNL     1      21.591   7.542  17.633  0.00  0.00    +0.000 N 
ATOM     12  C   UNL     1      22.487   6.721  16.964  0.00  0.00    +0.000 C 
ATOM     13  H   UNL     1      20.006   7.648  20.668  0.00  0.00    +0.000 HD
BRANCH  12  15
ATOM     14  N   UNL     1      24.351   6.025  18.366  0.00  0.00    +0.000 NA
ATOM     15  C   UNL     1      23.900   6.849  17.470  0.00  0.00    +0.000 C 
BRANCH  15  19
ATOM     16  S   UNL     1      25.691   9.814  15.504  0.00  0.00    +0.000 S 
ATOM     17  N   UNL     1      25.948   8.260  17.553  0.00  0.00    +0.000 NA
ATOM     18  N   UNL     1      27.711   9.803  17.234  0.00  0.00    +0.000 N 
ATOM     19  C   UNL     1      24.761   7.934  16.928  0.00  0.00    +0.000 A 
ATOM     20  C   UNL     1      24.452   8.667  15.801  0.00  0.00    +0.000 A 
ATOM     21  C   UNL     1      26.523   9.239  16.889  0.00  0.00    +0.000 A 
ATOM     22  H   UNL     1      24.596   9.449  21.803  0.00  0.00    +0.000 HD
ATOM     23  H   UNL     1      24.596   9.449  21.803  0.00  0.00    +0.000 HD
ENDBRANCH  15  19
BRANCH  14  24
ATOM     24  O   UNL     1      23.381   5.087  18.746  0.00  0.00    +0.000 OA
ATOM     25  C   UNL     1      23.305   5.079  20.163  0.00  0.00    +0.000 C 
ENDBRANCH  14  24
ENDBRANCH  12  15
ENDBRANCH   5  11
BRANCH   7  27
ATOM     26  OXT UNL     1      18.314  11.593  19.376  0.00  0.00    +0.000 OA
ATOM     27  C   UNL     1      17.622  10.618  19.161  0.00  0.00    +0.000 C 
BRANCH  27  28
ATOM     28  O   UNL     1      16.368  10.622  18.671  0.00  0.00    +0.000 OA
ATOM     29  H   UNL     1      20.308   8.481  19.282  0.00  0.00    +0.000 HD
ENDBRANCH  27  28
ENDBRANCH   7  27
BRANCH   8  30
ATOM     30  C   UNL     1      16.765   9.122  21.593  0.00  0.00    +0.000 C 
BRANCH  30  31
ATOM     31  S   UNL     1      16.337   7.807  22.745  0.00  0.00    +0.000 S 
BRANCH  31  35
ATOM     32  O   UNL     1      15.538   5.709  24.409  0.00  0.00    +0.000 OA
ATOM     33  N   UNL     1      14.069   7.502  23.971  0.00  0.00    +0.000 N 
ATOM     34  N   UNL     1      13.870   8.643  21.933  0.00  0.00    +0.000 NA
ATOM     35  C   UNL     1      14.599   8.050  22.811  0.00  0.00    +0.000 C 
ATOM     36  C   UNL     1      14.568   6.405  24.658  0.00  0.00    +0.000 C 
ATOM     37  C   UNL     1      12.435   8.758  22.136  0.00  0.00    +0.000 C 
ATOM     38  H   UNL     1      19.840   7.336  22.041  0.00  0.00    +0.000 HD
BRANCH  36  41
ATOM     39  O   UNL     1      13.371   7.011  26.578  0.00  0.00    +0.000 OA
ATOM     40  N   UNL     1      13.622   4.744  26.107  0.00  0.00    +0.000 N 
ATOM     41  C   UNL     1      13.777   6.089  25.891  0.00  0.00    +0.000 C 
ATOM     42  H   UNL     1      17.551  10.362  21.348  0.00  0.00    +0.000 HD
ATOM     43  H   UNL     1      17.551  10.362  21.348  0.00  0.00    +0.000 HD
ENDBRANCH  36  41
ENDBRANCH  31  35
ENDBRANCH  30  31
ENDBRANCH   8  30
TORSDOF 10
ENDMDL
MODEL 12
REMARK minimizedAffinity -7.41057348
REMARK minimizedRMSD -1
REMARK  Name = 117607705
REMARK  12 active torsions:
REMARK  status: ('A' for Active; 'I' for Inactive)
REMARK    1  A    between atoms: S_2  and  C_25
REMARK    2  A    between atoms: S_2  and  C_30
REMARK    3  A    between atoms: O_5  and  C_26
REMARK    4  A    between atoms: O_8  and  N_13
REMARK    5  A    between atoms: O_8  and  C_35
REMARK    6  A    between atoms: N_12  and  CA_20
REMARK    7  A    between atoms: N_16  and  C_34
REMARK    8  A    between atoms: CA_22  and  C_26
REMARK    9  A    between atoms: C_23  and  C_25
REMARK   10  A    between atoms: C_27  and  C_28
REMARK   11  A    between atoms: C_28  and  C_29
REMARK   12  A    between atoms: C_33  and  C_36
REMARK                            x       y       z     vdW  Elec       q    Type
REMARK                         _______ _______ _______ _____ _____    ______ ____
ROOT
ATOM      1  S   UNL     1      18.697   7.618  21.661  0.00  0.00    +0.000 S 
ATOM      2  O   UNL     1      16.523  10.375  18.601  0.00  0.00    +0.000 OA
ATOM      3  N   UNL     1      18.356   9.359  19.681  0.00  0.00    +0.000 N 
ATOM      4  C   UNL     1      18.377   9.319  21.134  0.00  0.00    +0.000 C 
ATOM      5  CA  UNL     1      16.913   9.820  21.077  0.00  0.00    +0.000 C 
ATOM      6  C   UNL     1      17.156   9.966  19.547  0.00  0.00    +0.000 C 
ATOM      7  CA  UNL     1      19.346   8.865  18.894  0.00  0.00    +0.000 C 
ATOM      8  C   UNL     1      20.309   8.052  19.389  0.00  0.00    +0.000 C 
ATOM      9  C   UNL     1      20.316   7.541  20.827  0.00  0.00    +0.000 C 
ENDROOT
BRANCH   5  11
ATOM     10  O   UNL     1      15.082   9.901  23.384  0.00  0.00    +0.000 OA
ATOM     11  N   UNL     1      15.854   8.879  21.416  0.00  0.00    +0.000 N 
ATOM     12  C   UNL     1      15.050   9.022  22.538  0.00  0.00    +0.000 C 
ATOM     13  H   UNL     1      18.470   6.922  20.387  0.00  0.00    +0.000 HD
BRANCH  12  15
ATOM     14  N   UNL     1      12.783   8.154  22.364  0.00  0.00    +0.000 NA
ATOM     15  C   UNL     1      14.023   7.929  22.676  0.00  0.00    +0.000 C 
BRANCH  15  19
ATOM     16  S   UNL     1      14.898   4.111  23.399  0.00  0.00    +0.000 S 
ATOM     17  N   UNL     1      15.077   6.485  24.407  0.00  0.00    +0.000 NA
ATOM     18  N   UNL     1      15.971   4.753  25.746  0.00  0.00    +0.000 N 
ATOM     19  C   UNL     1      14.454   6.598  23.179  0.00  0.00    +0.000 A 
ATOM     20  C   UNL     1      14.270   5.420  22.486  0.00  0.00    +0.000 A 
ATOM     21  C   UNL     1      15.356   5.218  24.627  0.00  0.00    +0.000 A 
ATOM     22  H   UNL     1      18.815   9.150  23.933  0.00  0.00    +0.000 HD
ATOM     23  H   UNL     1      18.815   9.150  23.933  0.00  0.00    +0.000 HD
ENDBRANCH  15  19
BRANCH  14  24
ATOM     24  O   UNL     1      12.588   9.469  21.920  0.00  0.00    +0.000 OA
ATOM     25  C   UNL     1      12.281   9.427  20.535  0.00  0.00    +0.000 C 
ENDBRANCH  14  24
ENDBRANCH  12  15
ENDBRANCH   5  11
BRANCH   7  27
ATOM     26  OXT UNL     1      19.468  10.321  17.018  0.00  0.00    +0.000 OA
ATOM     27  C   UNL     1      19.292   9.204  17.464  0.00  0.00    +0.000 C 
BRANCH  27  28
ATOM     28  O   UNL     1      19.021   8.094  16.751  0.00  0.00    +0.000 OA
ATOM     29  H   UNL     1      20.697  10.012  20.493  0.00  0.00    +0.000 HD
ENDBRANCH  27  28
ENDBRANCH   7  27
BRANCH   8  30
ATOM     30  C   UNL     1      21.485   7.532  18.597  0.00  0.00    +0.000 C 
BRANCH  30  31
ATOM     31  S   UNL     1      22.768   8.794  18.538  0.00  0.00    +0.000 S 
BRANCH  31  35
ATOM     32  O   UNL     1      24.049   8.616  16.061  0.00  0.00    +0.000 OA
ATOM     33  N   UNL     1      25.195   8.021  18.035  0.00  0.00    +0.000 N 
ATOM     34  N   UNL     1      24.253   6.952  19.896  0.00  0.00    +0.000 NA
ATOM     35  C   UNL     1      24.158   7.795  18.930  0.00  0.00    +0.000 C 
ATOM     36  C   UNL     1      25.060   8.403  16.708  0.00  0.00    +0.000 C 
ATOM     37  C   UNL     1      25.480   6.194  20.083  0.00  0.00    +0.000 C 
ATOM     38  H   UNL     1      19.607  10.436  17.990  0.00  0.00    +0.000 HD
BRANCH  36  41
ATOM     39  O   UNL     1      27.107   7.624  15.878  0.00  0.00    +0.000 OA
ATOM     40  N   UNL     1      26.622   9.891  15.660  0.00  0.00    +0.000 N 
ATOM     41  C   UNL     1      26.381   8.593  16.026  0.00  0.00    +0.000 C 
ATOM     42  H   UNL     1      21.392   4.991  19.936  0.00  0.00    +0.000 HD
ATOM     43  H   UNL     1      21.392   4.991  19.936  0.00  0.00    +0.000 HD
ENDBRANCH  36  41
ENDBRANCH  31  35
ENDBRANCH  30  31
ENDBRANCH   8  30
TORSDOF 10
ENDMDL
MODEL 13
REMARK minimizedAffinity -7.38831139
REMARK minimizedRMSD -1
REMARK  Name = 117607705
REMARK  12 active torsions:
REMARK  status: ('A' for Active; 'I' for Inactive)
REMARK    1  A    between atoms: S_2  and  C_25
REMARK    2  A    between atoms: S_2  and  C_30
REMARK    3  A    between atoms: O_5  and  C_26
REMARK    4  A    between atoms: O_8  and  N_13
REMARK    5  A    between atoms: O_8  and  C_35
REMARK    6  A    between atoms: N_12  and  CA_20
REMARK    7  A    between atoms: N_16  and  C_34
REMARK    8  A    between atoms: CA_22  and  C_26
REMARK    9  A    between atoms: C_23  and  C_25
REMARK   10  A    between atoms: C_27  and  C_28
REMARK   11  A    between atoms: C_28  and  C_29
REMARK   12  A    between atoms: C_33  and  C_36
REMARK                            x       y       z     vdW  Elec       q    Type
REMARK                         _______ _______ _______ _____ _____    ______ ____
ROOT
ATOM      1  S   UNL     1      11.923   5.605  22.743  0.00  0.00    +0.000 S 
ATOM      2  O   UNL     1      14.568   2.046  24.168  0.00  0.00    +0.000 OA
ATOM      3  N   UNL     1      14.100   4.160  23.233  0.00  0.00    +0.000 N 
ATOM      4  C   UNL     1      13.038   4.269  22.247  0.00  0.00    +0.000 C 
ATOM      5  CA  UNL     1      12.669   2.812  22.620  0.00  0.00    +0.000 C 
ATOM      6  C   UNL     1      13.962   2.839  23.484  0.00  0.00    +0.000 C 
ATOM      7  CA  UNL     1      14.867   5.204  23.641  0.00  0.00    +0.000 C 
ATOM      8  C   UNL     1      14.528   6.485  23.364  0.00  0.00    +0.000 C 
ATOM      9  C   UNL     1      13.227   6.877  22.669  0.00  0.00    +0.000 C 
ENDROOT
BRANCH   5  11
ATOM     10  O   UNL     1      10.245   1.346  21.806  0.00  0.00    +0.000 OA
ATOM     11  N   UNL     1      11.452   2.590  23.391  0.00  0.00    +0.000 N 
ATOM     12  C   UNL     1      10.368   1.878  22.898  0.00  0.00    +0.000 C 
ATOM     13  H   UNL     1      12.294   5.853  24.001  0.00  0.00    +0.000 HD
BRANCH  12  15
ATOM     14  N   UNL     1       9.149   0.763  24.685  0.00  0.00    +0.000 NA
ATOM     15  C   UNL     1       9.228   1.777  23.877  0.00  0.00    +0.000 C 
BRANCH  15  19
ATOM     16  S   UNL     1       6.718   4.807  23.257  0.00  0.00    +0.000 S 
ATOM     17  N   UNL     1       7.401   3.031  25.007  0.00  0.00    +0.000 NA
ATOM     18  N   UNL     1       5.656   4.482  25.673  0.00  0.00    +0.000 N 
ATOM     19  C   UNL     1       8.201   2.851  23.896  0.00  0.00    +0.000 A 
ATOM     20  C   UNL     1       7.978   3.718  22.847  0.00  0.00    +0.000 A 
ATOM     21  C   UNL     1       6.581   4.035  24.783  0.00  0.00    +0.000 A 
ATOM     22  H   UNL     1       5.268  -1.040  25.430  0.00  0.00    +0.000 HD
ATOM     23  H   UNL     1       5.268  -1.040  25.430  0.00  0.00    +0.000 HD
ENDBRANCH  15  19
BRANCH  14  24
ATOM     24  O   UNL     1      10.209  -0.135  24.500  0.00  0.00    +0.000 OA
ATOM     25  C   UNL     1      10.310  -0.944  25.661  0.00  0.00    +0.000 C 
ENDBRANCH  14  24
ENDBRANCH  12  15
ENDBRANCH   5  11
BRANCH   7  27
ATOM     26  OXT UNL     1      17.139   4.598  23.989  0.00  0.00    +0.000 OA
ATOM     27  C   UNL     1      16.052   4.884  24.450  0.00  0.00    +0.000 C 
BRANCH  27  28
ATOM     28  O   UNL     1      15.735   4.959  25.758  0.00  0.00    +0.000 OA
ATOM     29  H   UNL     1      14.954   6.207  21.477  0.00  0.00    +0.000 HD
ENDBRANCH  27  28
ENDBRANCH   7  27
BRANCH   8  30
ATOM     30  C   UNL     1      15.371   7.690  23.710  0.00  0.00    +0.000 C 
BRANCH  30  31
ATOM     31  S   UNL     1      15.451   8.790  22.287  0.00  0.00    +0.000 S 
BRANCH  31  35
ATOM     32  O   UNL     1      15.435   9.869  19.710  0.00  0.00    +0.000 OA
ATOM     33  N   UNL     1      17.476   9.298  20.745  0.00  0.00    +0.000 N 
ATOM     34  N   UNL     1      17.829   7.460  22.156  0.00  0.00    +0.000 NA
ATOM     35  C   UNL     1      17.075   8.413  21.736  0.00  0.00    +0.000 C 
ATOM     36  C   UNL     1      16.646   9.938  19.836  0.00  0.00    +0.000 C 
ATOM     37  C   UNL     1      19.156   7.278  21.589  0.00  0.00    +0.000 C 
ATOM     38  H   UNL     1      12.085   9.009  23.557  0.00  0.00    +0.000 HD
BRANCH  36  41
ATOM     39  O   UNL     1      17.032  12.013  18.820  0.00  0.00    +0.000 OA
ATOM     40  N   UNL     1      18.425  10.234  18.255  0.00  0.00    +0.000 N 
ATOM     41  C   UNL     1      17.396  10.852  18.916  0.00  0.00    +0.000 C 
ATOM     42  H   UNL     1      11.874   8.862  23.239  0.00  0.00    +0.000 HD
ATOM     43  H   UNL     1      11.874   8.862  23.239  0.00  0.00    +0.000 HD
ENDBRANCH  36  41
ENDBRANCH  31  35
ENDBRANCH  30  31
ENDBRANCH   8  30
TORSDOF 10
ENDMDL
MODEL 14
REMARK minimizedAffinity -7.36237335
REMARK minimizedRMSD -1
REMARK  Name = 117607705
REMARK  12 active torsions:
REMARK  status: ('A' for Active; 'I' for Inactive)
REMARK    1  A    between atoms: S_2  and  C_25
REMARK    2  A    between atoms: S_2  and  C_30
REMARK    3  A    between atoms: O_5  and  C_26
REMARK    4  A    between atoms: O_8  and  N_13
REMARK    5  A    between atoms: O_8  and  C_35
REMARK    6  A    between atoms: N_12  and  CA_20
REMARK    7  A    between atoms: N_16  and  C_34
REMARK    8  A    between atoms: CA_22  and  C_26
REMARK    9  A    between atoms: C_23  and  C_25
REMARK   10  A    between atoms: C_27  and  C_28
REMARK   11  A    between atoms: C_28  and  C_29
REMARK   12  A    between atoms: C_33  and  C_36
REMARK                            x       y       z     vdW  Elec       q    Type
REMARK                         _______ _______ _______ _____ _____    ______ ____
ROOT
ATOM      1  S   UNL     1      18.526   4.977  18.604  0.00  0.00    +0.000 S 
ATOM      2  O   UNL     1      20.712   9.087  18.703  0.00  0.00    +0.000 OA
ATOM      3  N   UNL     1      20.443   6.787  18.264  0.00  0.00    +0.000 N 
ATOM      4  C   UNL     1      19.890   5.936  19.305  0.00  0.00    +0.000 C 
ATOM      5  CA  UNL     1      19.569   7.242  20.072  0.00  0.00    +0.000 C 
ATOM      6  C   UNL     1      20.365   7.954  18.940  0.00  0.00    +0.000 C 
ATOM      7  CA  UNL     1      20.841   6.335  17.046  0.00  0.00    +0.000 C 
ATOM      8  C   UNL     1      20.506   5.101  16.602  0.00  0.00    +0.000 C 
ATOM      9  C   UNL     1      19.584   4.156  17.367  0.00  0.00    +0.000 C 
ENDROOT
BRANCH   5  11
ATOM     10  O   UNL     1      18.469   9.647  21.372  0.00  0.00    +0.000 OA
ATOM     11  N   UNL     1      18.174   7.658  20.161  0.00  0.00    +0.000 N 
ATOM     12  C   UNL     1      17.775   8.820  20.804  0.00  0.00    +0.000 C 
ATOM     13  H   UNL     1      18.121   4.281  20.731  0.00  0.00    +0.000 HD
BRANCH  12  15
ATOM     14  N   UNL     1      15.748   9.677  19.764  0.00  0.00    +0.000 NA
ATOM     15  C   UNL     1      16.286   9.041  20.761  0.00  0.00    +0.000 C 
BRANCH  15  19
ATOM     16  S   UNL     1      14.668   7.346  23.982  0.00  0.00    +0.000 S 
ATOM     17  N   UNL     1      14.105   8.827  21.939  0.00  0.00    +0.000 NA
ATOM     18  N   UNL     1      12.283   8.352  23.369  0.00  0.00    +0.000 N 
ATOM     19  C   UNL     1      15.451   8.525  21.877  0.00  0.00    +0.000 A 
ATOM     20  C   UNL     1      15.938   7.734  22.897  0.00  0.00    +0.000 A 
ATOM     21  C   UNL     1      13.590   8.258  23.007  0.00  0.00    +0.000 A 
ATOM     22  H   UNL     1      14.075  13.440  22.100  0.00  0.00    +0.000 HD
ATOM     23  H   UNL     1      14.075  13.440  22.100  0.00  0.00    +0.000 HD
ENDBRANCH  15  19
BRANCH  14  24
ATOM     24  O   UNL     1      16.708  10.083  18.827  0.00  0.00    +0.000 OA
ATOM     25  C   UNL     1      16.720  11.502  18.794  0.00  0.00    +0.000 C 
ENDBRANCH  14  24
ENDBRANCH  12  15
ENDBRANCH   5  11
BRANCH   7  27
ATOM     26  OXT UNL     1      22.816   7.315  16.157  0.00  0.00    +0.000 OA
ATOM     27  C   UNL     1      21.603   7.271  16.205  0.00  0.00    +0.000 C 
BRANCH  27  28
ATOM     28  O   UNL     1      20.747   8.050  15.515  0.00  0.00    +0.000 OA
ATOM     29  H   UNL     1      21.610   4.163  17.669  0.00  0.00    +0.000 HD
ENDBRANCH  27  28
ENDBRANCH   7  27
BRANCH   8  30
ATOM     30  C   UNL     1      20.980   4.499  15.300  0.00  0.00    +0.000 C 
BRANCH  30  31
ATOM     31  S   UNL     1      21.852   2.961  15.637  0.00  0.00    +0.000 S 
BRANCH  31  35
ATOM     32  O   UNL     1      19.910   1.185  14.696  0.00  0.00    +0.000 OA
ATOM     33  N   UNL     1      21.402   2.219  13.190  0.00  0.00    +0.000 N 
ATOM     34  N   UNL     1      23.658   2.699  13.609  0.00  0.00    +0.000 NA
ATOM     35  C   UNL     1      22.442   2.616  14.019  0.00  0.00    +0.000 C 
ATOM     36  C   UNL     1      20.251   1.554  13.585  0.00  0.00    +0.000 C 
ATOM     37  C   UNL     1      23.985   2.371  12.231  0.00  0.00    +0.000 C 
ATOM     38  H   UNL     1      21.170   3.537  19.129  0.00  0.00    +0.000 HD
BRANCH  36  41
ATOM     39  O   UNL     1      18.717   0.235  12.404  0.00  0.00    +0.000 OA
ATOM     40  N   UNL     1      19.260   2.329  11.543  0.00  0.00    +0.000 N 
ATOM     41  C   UNL     1      19.313   1.298  12.444  0.00  0.00    +0.000 C 
ATOM     42  H   UNL     1      23.307  -0.491  18.275  0.00  0.00    +0.000 HD
ATOM     43  H   UNL     1      23.307  -0.491  18.275  0.00  0.00    +0.000 HD
ENDBRANCH  36  41
ENDBRANCH  31  35
ENDBRANCH  30  31
ENDBRANCH   8  30
TORSDOF 10
ENDMDL
MODEL 15
REMARK minimizedAffinity -7.28611946
REMARK minimizedRMSD -1
REMARK  Name = 117607705
REMARK  12 active torsions:
REMARK  status: ('A' for Active; 'I' for Inactive)
REMARK    1  A    between atoms: S_2  and  C_25
REMARK    2  A    between atoms: S_2  and  C_30
REMARK    3  A    between atoms: O_5  and  C_26
REMARK    4  A    between atoms: O_8  and  N_13
REMARK    5  A    between atoms: O_8  and  C_35
REMARK    6  A    between atoms: N_12  and  CA_20
REMARK    7  A    between atoms: N_16  and  C_34
REMARK    8  A    between atoms: CA_22  and  C_26
REMARK    9  A    between atoms: C_23  and  C_25
REMARK   10  A    between atoms: C_27  and  C_28
REMARK   11  A    between atoms: C_28  and  C_29
REMARK   12  A    between atoms: C_33  and  C_36
REMARK                            x       y       z     vdW  Elec       q    Type
REMARK                         _______ _______ _______ _____ _____    ______ ____
ROOT
ATOM      1  S   UNL     1      16.212   5.296  22.987  0.00  0.00    +0.000 S 
ATOM      2  O   UNL     1      12.908   8.572  22.780  0.00  0.00    +0.000 OA
ATOM      3  N   UNL     1      15.089   7.706  23.010  0.00  0.00    +0.000 N 
ATOM      4  C   UNL     1      15.301   6.571  23.893  0.00  0.00    +0.000 C 
ATOM      5  CA  UNL     1      13.758   6.467  23.978  0.00  0.00    +0.000 C 
ATOM      6  C   UNL     1      13.751   7.799  23.174  0.00  0.00    +0.000 C 
ATOM      7  CA  UNL     1      16.080   8.324  22.317  0.00  0.00    +0.000 C 
ATOM      8  C   UNL     1      17.306   7.766  22.180  0.00  0.00    +0.000 C 
ATOM      9  C   UNL     1      17.654   6.372  22.693  0.00  0.00    +0.000 C 
ENDROOT
BRANCH   5  11
ATOM     10  O   UNL     1      12.606   4.021  25.150  0.00  0.00    +0.000 OA
ATOM     11  N   UNL     1      13.108   5.361  23.288  0.00  0.00    +0.000 N 
ATOM     12  C   UNL     1      12.600   4.254  23.952  0.00  0.00    +0.000 C 
ATOM     13  H   UNL     1      15.810   6.145  21.335  0.00  0.00    +0.000 HD
BRANCH  12  15
ATOM     14  N   UNL     1      12.710   2.388  22.392  0.00  0.00    +0.000 NA
ATOM     15  C   UNL     1      11.969   3.245  23.028  0.00  0.00    +0.000 C 
BRANCH  15  19
ATOM     16  S   UNL     1       8.101   2.571  22.361  0.00  0.00    +0.000 S 
ATOM     17  N   UNL     1       9.765   4.395  23.127  0.00  0.00    +0.000 NA
ATOM     18  N   UNL     1       7.498   5.064  23.065  0.00  0.00    +0.000 N 
ATOM     19  C   UNL     1      10.492   3.252  22.858  0.00  0.00    +0.000 A 
ATOM     20  C   UNL     1       9.765   2.161  22.431  0.00  0.00    +0.000 A 
ATOM     21  C   UNL     1       8.492   4.152  22.900  0.00  0.00    +0.000 A 
ATOM     22  H   UNL     1      10.729   5.224  27.564  0.00  0.00    +0.000 HD
ATOM     23  H   UNL     1      10.729   5.224  27.564  0.00  0.00    +0.000 HD
ENDBRANCH  15  19
BRANCH  14  24
ATOM     24  O   UNL     1      14.070   2.556  22.687  0.00  0.00    +0.000 OA
ATOM     25  C   UNL     1      14.824   1.881  21.691  0.00  0.00    +0.000 C 
ENDBRANCH  14  24
ENDBRANCH  12  15
ENDBRANCH   5  11
BRANCH   7  27
ATOM     26  OXT UNL     1      15.442   9.716  20.499  0.00  0.00    +0.000 OA
ATOM     27  C   UNL     1      15.744   9.601  21.670  0.00  0.00    +0.000 C 
BRANCH  27  28
ATOM     28  O   UNL     1      15.826  10.596  22.574  0.00  0.00    +0.000 OA
ATOM     29  H   UNL     1      15.197   6.210  21.650  0.00  0.00    +0.000 HD
ENDBRANCH  27  28
ENDBRANCH   7  27
BRANCH   8  30
ATOM     30  C   UNL     1      18.479   8.428  21.498  0.00  0.00    +0.000 C 
BRANCH  30  31
ATOM     31  S   UNL     1      19.735   7.190  21.136  0.00  0.00    +0.000 S 
BRANCH  31  35
ATOM     32  O   UNL     1      19.586   4.735  19.809  0.00  0.00    +0.000 OA
ATOM     33  N   UNL     1      19.581   6.750  18.582  0.00  0.00    +0.000 N 
ATOM     34  N   UNL     1      20.799   8.681  19.115  0.00  0.00    +0.000 NA
ATOM     35  C   UNL     1      20.117   7.656  19.487  0.00  0.00    +0.000 C 
ATOM     36  C   UNL     1      19.364   5.399  18.810  0.00  0.00    +0.000 C 
ATOM     37  C   UNL     1      21.033   8.924  17.700  0.00  0.00    +0.000 C 
ATOM     38  H   UNL     1      19.425   6.518  24.664  0.00  0.00    +0.000 HD
BRANCH  36  41
ATOM     39  O   UNL     1      18.927   5.169  16.521  0.00  0.00    +0.000 OA
ATOM     40  N   UNL     1      17.996   3.613  17.981  0.00  0.00    +0.000 N 
ATOM     41  C   UNL     1      18.742   4.709  17.635  0.00  0.00    +0.000 C 
ATOM     42  H   UNL     1      22.154  10.146  21.090  0.00  0.00    +0.000 HD
ATOM     43  H   UNL     1      22.154  10.146  21.090  0.00  0.00    +0.000 HD
ENDBRANCH  36  41
ENDBRANCH  31  35
ENDBRANCH  30  31
ENDBRANCH   8  30
TORSDOF 10
ENDMDL
MODEL 16
REMARK minimizedAffinity -7.24481344
REMARK minimizedRMSD -1
REMARK  Name = 117607705
REMARK  12 active torsions:
REMARK  status: ('A' for Active; 'I' for Inactive)
REMARK    1  A    between atoms: S_2  and  C_25
REMARK    2  A    between atoms: S_2  and  C_30
REMARK    3  A    between atoms: O_5  and  C_26
REMARK    4  A    between atoms: O_8  and  N_13
REMARK    5  A    between atoms: O_8  and  C_35
REMARK    6  A    between atoms: N_12  and  CA_20
REMARK    7  A    between atoms: N_16  and  C_34
REMARK    8  A    between atoms: CA_22  and  C_26
REMARK    9  A    between atoms: C_23  and  C_25
REMARK   10  A    between atoms: C_27  and  C_28
REMARK   11  A    between atoms: C_28  and  C_29
REMARK   12  A    between atoms: C_33  and  C_36
REMARK                            x       y       z     vdW  Elec       q    Type
REMARK                         _______ _______ _______ _____ _____    ______ ____
ROOT
ATOM      1  S   UNL     1      19.833   6.430  19.876  0.00  0.00    +0.000 S 
ATOM      2  O   UNL     1      19.930   9.679  16.541  0.00  0.00    +0.000 OA
ATOM      3  N   UNL     1      18.994   8.372  18.266  0.00  0.00    +0.000 N 
ATOM      4  C   UNL     1      19.214   6.935  18.253  0.00  0.00    +0.000 C 
ATOM      5  CA  UNL     1      20.231   7.195  17.114  0.00  0.00    +0.000 C 
ATOM      6  C   UNL     1      19.720   8.664  17.165  0.00  0.00    +0.000 C 
ATOM      7  CA  UNL     1      18.257   9.019  19.206  0.00  0.00    +0.000 C 
ATOM      8  C   UNL     1      17.890   8.414  20.360  0.00  0.00    +0.000 C 
ATOM      9  C   UNL     1      18.346   7.012  20.754  0.00  0.00    +0.000 C 
ENDROOT
BRANCH   5  11
ATOM     10  O   UNL     1      22.531   7.893  15.409  0.00  0.00    +0.000 OA
ATOM     11  N   UNL     1      21.649   7.055  17.418  0.00  0.00    +0.000 N 
ATOM     12  C   UNL     1      22.649   7.421  16.529  0.00  0.00    +0.000 C 
ATOM     13  H   UNL     1      20.213   4.177  18.595  0.00  0.00    +0.000 HD
BRANCH  12  15
ATOM     14  N   UNL     1      24.597   8.073  17.836  0.00  0.00    +0.000 NA
ATOM     15  C   UNL     1      24.037   7.189  17.066  0.00  0.00    +0.000 C 
BRANCH  15  19
ATOM     16  S   UNL     1      25.502   3.520  16.558  0.00  0.00    +0.000 S 
ATOM     17  N   UNL     1      25.765   5.964  15.761  0.00  0.00    +0.000 NA
ATOM     18  N   UNL     1      27.246   4.415  14.761  0.00  0.00    +0.000 N 
ATOM     19  C   UNL     1      24.750   5.938  16.696  0.00  0.00    +0.000 A 
ATOM     20  C   UNL     1      24.463   4.703  17.239  0.00  0.00    +0.000 A 
ATOM     21  C   UNL     1      26.236   4.746  15.609  0.00  0.00    +0.000 A 
ATOM     22  H   UNL     1      23.676   7.626  11.996  0.00  0.00    +0.000 HD
ATOM     23  H   UNL     1      23.676   7.626  11.996  0.00  0.00    +0.000 HD
ENDBRANCH  15  19
BRANCH  14  24
ATOM     24  O   UNL     1      23.761   9.176  18.054  0.00  0.00    +0.000 OA
ATOM     25  C   UNL     1      23.855   9.537  19.424  0.00  0.00    +0.000 C 
ENDBRANCH  14  24
ENDBRANCH  12  15
ENDBRANCH   5  11
BRANCH   7  27
ATOM     26  OXT UNL     1      18.668  11.360  19.177  0.00  0.00    +0.000 OA
ATOM     27  C   UNL     1      17.926  10.426  18.941  0.00  0.00    +0.000 C 
BRANCH  27  28
ATOM     28  O   UNL     1      16.692  10.503  18.405  0.00  0.00    +0.000 OA
ATOM     29  H   UNL     1      20.472   8.132  19.166  0.00  0.00    +0.000 HD
ENDBRANCH  27  28
ENDBRANCH   7  27
BRANCH   8  30
ATOM     30  C   UNL     1      17.004   9.038  21.412  0.00  0.00    +0.000 C 
BRANCH  30  31
ATOM     31  S   UNL     1      16.539   7.786  22.619  0.00  0.00    +0.000 S 
BRANCH  31  35
ATOM     32  O   UNL     1      15.652   5.675  24.221  0.00  0.00    +0.000 OA
ATOM     33  N   UNL     1      14.262   7.542  23.842  0.00  0.00    +0.000 N 
ATOM     34  N   UNL     1      14.110   8.753  21.840  0.00  0.00    +0.000 NA
ATOM     35  C   UNL     1      14.814   8.102  22.698  0.00  0.00    +0.000 C 
ATOM     36  C   UNL     1      14.714   6.404  24.494  0.00  0.00    +0.000 C 
ATOM     37  C   UNL     1      12.681   8.923  22.051  0.00  0.00    +0.000 C 
ATOM     38  H   UNL     1      20.018   7.186  21.892  0.00  0.00    +0.000 HD
BRANCH  36  41
ATOM     39  O   UNL     1      13.640   6.988  26.492  0.00  0.00    +0.000 OA
ATOM     40  N   UNL     1      13.590   4.757  25.826  0.00  0.00    +0.000 N 
ATOM     41  C   UNL     1      13.911   6.085  25.718  0.00  0.00    +0.000 C 
ATOM     42  H   UNL     1      18.118  10.225  21.439  0.00  0.00    +0.000 HD
ATOM     43  H   UNL     1      18.118  10.225  21.439  0.00  0.00    +0.000 HD
ENDBRANCH  36  41
ENDBRANCH  31  35
ENDBRANCH  30  31
ENDBRANCH   8  30
TORSDOF 10
ENDMDL
MODEL 17
REMARK minimizedAffinity -7.07860327
REMARK minimizedRMSD -1
REMARK  Name = 117607705
REMARK  12 active torsions:
REMARK  status: ('A' for Active; 'I' for Inactive)
REMARK    1  A    between atoms: S_2  and  C_25
REMARK    2  A    between atoms: S_2  and  C_30
REMARK    3  A    between atoms: O_5  and  C_26
REMARK    4  A    between atoms: O_8  and  N_13
REMARK    5  A    between atoms: O_8  and  C_35
REMARK    6  A    between atoms: N_12  and  CA_20
REMARK    7  A    between atoms: N_16  and  C_34
REMARK    8  A    between atoms: CA_22  and  C_26
REMARK    9  A    between atoms: C_23  and  C_25
REMARK   10  A    between atoms: C_27  and  C_28
REMARK   11  A    between atoms: C_28  and  C_29
REMARK   12  A    between atoms: C_33  and  C_36
REMARK                            x       y       z     vdW  Elec       q    Type
REMARK                         _______ _______ _______ _____ _____    ______ ____
ROOT
ATOM      1  S   UNL     1      18.613   6.434  20.638  0.00  0.00    +0.000 S 
ATOM      2  O   UNL     1      16.041  10.310  20.856  0.00  0.00    +0.000 OA
ATOM      3  N   UNL     1      18.002   9.021  20.625  0.00  0.00    +0.000 N 
ATOM      4  C   UNL     1      18.244   7.941  21.568  0.00  0.00    +0.000 C 
ATOM      5  CA  UNL     1      16.797   8.176  22.066  0.00  0.00    +0.000 C 
ATOM      6  C   UNL     1      16.805   9.410  21.118  0.00  0.00    +0.000 C 
ATOM      7  CA  UNL     1      18.852   9.357  19.620  0.00  0.00    +0.000 C 
ATOM      8  C   UNL     1      19.865   8.541  19.246  0.00  0.00    +0.000 C 
ATOM      9  C   UNL     1      20.084   7.151  19.835  0.00  0.00    +0.000 C 
ENDROOT
BRANCH   5  11
ATOM     10  O   UNL     1      15.764   5.988  23.748  0.00  0.00    +0.000 OA
ATOM     11  N   UNL     1      15.787   7.181  21.726  0.00  0.00    +0.000 N 
ATOM     12  C   UNL     1      15.378   6.191  22.608  0.00  0.00    +0.000 C 
ATOM     13  H   UNL     1      17.730   7.452  18.919  0.00  0.00    +0.000 HD
BRANCH  12  15
ATOM     14  N   UNL     1      13.064   5.532  22.244  0.00  0.00    +0.000 NA
ATOM     15  C   UNL     1      14.321   5.284  22.035  0.00  0.00    +0.000 C 
BRANCH  15  19
ATOM     16  S   UNL     1      15.296   1.742  20.496  0.00  0.00    +0.000 S 
ATOM     17  N   UNL     1      15.179   4.263  19.935  0.00  0.00    +0.000 NA
ATOM     18  N   UNL     1      15.964   2.878  18.186  0.00  0.00    +0.000 N 
ATOM     19  C   UNL     1      14.744   4.104  21.235  0.00  0.00    +0.000 A 
ATOM     20  C   UNL     1      14.737   2.811  21.715  0.00  0.00    +0.000 A 
ATOM     21  C   UNL     1      15.497   3.083  19.446  0.00  0.00    +0.000 A 
ATOM     22  H   UNL     1      11.553   6.216  17.852  0.00  0.00    +0.000 HD
ATOM     23  H   UNL     1      11.553   6.216  17.852  0.00  0.00    +0.000 HD
ENDBRANCH  15  19
BRANCH  14  24
ATOM     24  O   UNL     1      12.883   6.683  23.024  0.00  0.00    +0.000 OA
ATOM     25  C   UNL     1      12.138   7.620  22.261  0.00  0.00    +0.000 C 
ENDBRANCH  14  24
ENDBRANCH  12  15
ENDBRANCH   5  11
BRANCH   7  27
ATOM     26  OXT UNL     1      19.010  11.702  19.268  0.00  0.00    +0.000 OA
ATOM     27  C   UNL     1      18.585  10.619  18.916  0.00  0.00    +0.000 C 
BRANCH  27  28
ATOM     28  O   UNL     1      17.809  10.377  17.841  0.00  0.00    +0.000 OA
ATOM     29  H   UNL     1      20.832   8.915  20.877  0.00  0.00    +0.000 HD
ENDBRANCH  27  28
ENDBRANCH   7  27
BRANCH   8  30
ATOM     30  C   UNL     1      20.899   8.882  18.198  0.00  0.00    +0.000 C 
BRANCH  30  31
ATOM     31  S   UNL     1      22.525   8.955  18.966  0.00  0.00    +0.000 S 
BRANCH  31  35
ATOM     32  O   UNL     1      24.880  10.353  19.523  0.00  0.00    +0.000 OA
ATOM     33  N   UNL     1      24.861   8.671  17.869  0.00  0.00    +0.000 N 
ATOM     34  N   UNL     1      23.090   8.211  16.403  0.00  0.00    +0.000 NA
ATOM     35  C   UNL     1      23.511   8.558  17.568  0.00  0.00    +0.000 C 
ATOM     36  C   UNL     1      25.422   9.535  18.798  0.00  0.00    +0.000 C 
ATOM     37  C   UNL     1      24.043   7.919  15.343  0.00  0.00    +0.000 C 
ATOM     38  H   UNL     1      20.101   9.912  21.455  0.00  0.00    +0.000 HD
BRANCH  36  41
ATOM     39  O   UNL     1      27.388   9.043  19.970  0.00  0.00    +0.000 OA
ATOM     40  N   UNL     1      27.568   9.681  17.739  0.00  0.00    +0.000 N 
ATOM     41  C   UNL     1      26.909   9.384  18.902  0.00  0.00    +0.000 C 
ATOM     42  H   UNL     1      20.098   9.890  21.454  0.00  0.00    +0.000 HD
ATOM     43  H   UNL     1      20.098   9.890  21.454  0.00  0.00    +0.000 HD
ENDBRANCH  36  41
ENDBRANCH  31  35
ENDBRANCH  30  31
ENDBRANCH   8  30
TORSDOF 10
ENDMDL
MODEL 18
REMARK minimizedAffinity -7.03744936
REMARK minimizedRMSD -1
REMARK  Name = 117607705
REMARK  12 active torsions:
REMARK  status: ('A' for Active; 'I' for Inactive)
REMARK    1  A    between atoms: S_2  and  C_25
REMARK    2  A    between atoms: S_2  and  C_30
REMARK    3  A    between atoms: O_5  and  C_26
REMARK    4  A    between atoms: O_8  and  N_13
REMARK    5  A    between atoms: O_8  and  C_35
REMARK    6  A    between atoms: N_12  and  CA_20
REMARK    7  A    between atoms: N_16  and  C_34
REMARK    8  A    between atoms: CA_22  and  C_26
REMARK    9  A    between atoms: C_23  and  C_25
REMARK   10  A    between atoms: C_27  and  C_28
REMARK   11  A    between atoms: C_28  and  C_29
REMARK   12  A    between atoms: C_33  and  C_36
REMARK                            x       y       z     vdW  Elec       q    Type
REMARK                         _______ _______ _______ _____ _____    ______ ____
ROOT
ATOM      1  S   UNL     1      15.836   7.570  21.308  0.00  0.00    +0.000 S 
ATOM      2  O   UNL     1      20.035   5.690  22.032  0.00  0.00    +0.000 OA
ATOM      3  N   UNL     1      17.759   6.138  22.456  0.00  0.00    +0.000 N 
ATOM      4  C   UNL     1      17.291   7.513  22.382  0.00  0.00    +0.000 C 
ATOM      5  CA  UNL     1      18.676   7.854  21.780  0.00  0.00    +0.000 C 
ATOM      6  C   UNL     1      19.044   6.379  22.112  0.00  0.00    +0.000 C 
ATOM      7  CA  UNL     1      16.967   5.083  22.781  0.00  0.00    +0.000 C 
ATOM      8  C   UNL     1      15.618   5.187  22.798  0.00  0.00    +0.000 C 
ATOM      9  C   UNL     1      14.868   6.443  22.365  0.00  0.00    +0.000 C 
ENDROOT
BRANCH   5  11
ATOM     10  O   UNL     1      20.207  10.006  20.472  0.00  0.00    +0.000 OA
ATOM     11  N   UNL     1      18.746   8.171  20.359  0.00  0.00    +0.000 N 
ATOM     12  C   UNL     1      19.507   9.217  19.858  0.00  0.00    +0.000 C 
ATOM     13  H   UNL     1      15.444   7.471  20.941  0.00  0.00    +0.000 HD
BRANCH  12  15
ATOM     14  N   UNL     1      18.717  10.293  17.822  0.00  0.00    +0.000 NA
ATOM     15  C   UNL     1      19.426   9.346  18.360  0.00  0.00    +0.000 C 
BRANCH  15  19
ATOM     16  S   UNL     1      21.986   7.147  16.243  0.00  0.00    +0.000 S 
ATOM     17  N   UNL     1      19.498   7.313  16.927  0.00  0.00    +0.000 NA
ATOM     18  N   UNL     1      20.037   5.485  15.527  0.00  0.00    +0.000 N 
ATOM     19  C   UNL     1      20.164   8.371  17.514  0.00  0.00    +0.000 A 
ATOM     20  C   UNL     1      21.517   8.448  17.258  0.00  0.00    +0.000 A 
ATOM     21  C   UNL     1      20.359   6.601  16.233  0.00  0.00    +0.000 A 
ATOM     22  H   UNL     1      17.723   5.062  20.544  0.00  0.00    +0.000 HD
ATOM     23  H   UNL     1      17.723   5.062  20.544  0.00  0.00    +0.000 HD
ENDBRANCH  15  19
BRANCH  14  24
ATOM     24  O   UNL     1      18.100  11.095  18.792  0.00  0.00    +0.000 OA
ATOM     25  C   UNL     1      16.695  10.929  18.672  0.00  0.00    +0.000 C 
ENDBRANCH  14  24
ENDBRANCH  12  15
ENDBRANCH   5  11
BRANCH   7  27
ATOM     26  OXT UNL     1      17.894   2.971  22.208  0.00  0.00    +0.000 OA
ATOM     27  C   UNL     1      17.640   3.805  23.054  0.00  0.00    +0.000 C 
BRANCH  27  28
ATOM     28  O   UNL     1      17.921   3.719  24.369  0.00  0.00    +0.000 OA
ATOM     29  H   UNL     1      17.120   6.262  20.711  0.00  0.00    +0.000 HD
ENDBRANCH  27  28
ENDBRANCH   7  27
BRANCH   8  30
ATOM     30  C   UNL     1      14.678   4.086  23.228  0.00  0.00    +0.000 C 
BRANCH  30  31
ATOM     31  S   UNL     1      13.505   3.752  21.903  0.00  0.00    +0.000 S 
BRANCH  31  35
ATOM     32  O   UNL     1      14.692   4.519  19.493  0.00  0.00    +0.000 OA
ATOM     33  N   UNL     1      15.229   2.441  20.472  0.00  0.00    +0.000 N 
ATOM     34  N   UNL     1      13.742   1.048  21.631  0.00  0.00    +0.000 NA
ATOM     35  C   UNL     1      14.160   2.227  21.331  0.00  0.00    +0.000 C 
ATOM     36  C   UNL     1      15.405   3.541  19.644  0.00  0.00    +0.000 C 
ATOM     37  C   UNL     1      14.395  -0.121  21.063  0.00  0.00    +0.000 C 
ATOM     38  H   UNL     1      11.671   6.596  23.143  0.00  0.00    +0.000 HD
BRANCH  36  41
ATOM     39  O   UNL     1      16.858   2.541  18.104  0.00  0.00    +0.000 OA
ATOM     40  N   UNL     1      17.536   4.515  19.136  0.00  0.00    +0.000 N 
ATOM     41  C   UNL     1      16.683   3.478  18.865  0.00  0.00    +0.000 C 
ATOM     42  H   UNL     1      10.402   0.902  21.523  0.00  0.00    +0.000 HD
ATOM     43  H   UNL     1      10.402   0.902  21.523  0.00  0.00    +0.000 HD
ENDBRANCH  36  41
ENDBRANCH  31  35
ENDBRANCH  30  31
ENDBRANCH   8  30
TORSDOF 10
ENDMDL
MODEL 19
REMARK minimizedAffinity -6.89223194
REMARK minimizedRMSD -1
REMARK  Name = 117607705
REMARK  12 active torsions:
REMARK  status: ('A' for Active; 'I' for Inactive)
REMARK    1  A    between atoms: S_2  and  C_25
REMARK    2  A    between atoms: S_2  and  C_30
REMARK    3  A    between atoms: O_5  and  C_26
REMARK    4  A    between atoms: O_8  and  N_13
REMARK    5  A    between atoms: O_8  and  C_35
REMARK    6  A    between atoms: N_12  and  CA_20
REMARK    7  A    between atoms: N_16  and  C_34
REMARK    8  A    between atoms: CA_22  and  C_26
REMARK    9  A    between atoms: C_23  and  C_25
REMARK   10  A    between atoms: C_27  and  C_28
REMARK   11  A    between atoms: C_28  and  C_29
REMARK   12  A    between atoms: C_33  and  C_36
REMARK                            x       y       z     vdW  Elec       q    Type
REMARK                         _______ _______ _______ _____ _____    ______ ____
ROOT
ATOM      1  S   UNL     1      16.536   5.224  22.866  0.00  0.00    +0.000 S 
ATOM      2  O   UNL     1      13.148   8.407  22.582  0.00  0.00    +0.000 OA
ATOM      3  N   UNL     1      15.353   7.604  22.818  0.00  0.00    +0.000 N 
ATOM      4  C   UNL     1      15.602   6.506  23.737  0.00  0.00    +0.000 C 
ATOM      5  CA  UNL     1      14.064   6.367  23.843  0.00  0.00    +0.000 C 
ATOM      6  C   UNL     1      14.014   7.670  22.993  0.00  0.00    +0.000 C 
ATOM      7  CA  UNL     1      16.321   8.222  22.093  0.00  0.00    +0.000 C 
ATOM      8  C   UNL     1      17.558   7.690  21.961  0.00  0.00    +0.000 C 
ATOM      9  C   UNL     1      17.947   6.324  22.519  0.00  0.00    +0.000 C 
ENDROOT
BRANCH   5  11
ATOM     10  O   UNL     1      12.530   4.190  25.104  0.00  0.00    +0.000 OA
ATOM     11  N   UNL     1      13.434   5.221  23.198  0.00  0.00    +0.000 N 
ATOM     12  C   UNL     1      12.733   4.253  23.902  0.00  0.00    +0.000 C 
ATOM     13  H   UNL     1      16.468   5.544  21.642  0.00  0.00    +0.000 HD
BRANCH  12  15
ATOM     14  N   UNL     1      10.929   3.219  22.636  0.00  0.00    +0.000 NA
ATOM     15  C   UNL     1      12.168   3.170  23.021  0.00  0.00    +0.000 C 
BRANCH  15  19
ATOM     16  S   UNL     1      14.028   0.041  21.402  0.00  0.00    +0.000 S 
ATOM     17  N   UNL     1      14.227   1.798  23.289  0.00  0.00    +0.000 NA
ATOM     18  N   UNL     1      16.008   0.247  23.167  0.00  0.00    +0.000 N 
ATOM     19  C   UNL     1      13.051   2.048  22.608  0.00  0.00    +0.000 A 
ATOM     20  C   UNL     1      12.773   1.201  21.555  0.00  0.00    +0.000 A 
ATOM     21  C   UNL     1      14.824   0.762  22.740  0.00  0.00    +0.000 A 
ATOM     22  H   UNL     1      16.565   5.749  22.817  0.00  0.00    +0.000 HD
ATOM     23  H   UNL     1      16.565   5.749  22.817  0.00  0.00    +0.000 HD
ENDBRANCH  15  19
BRANCH  14  24
ATOM     24  O   UNL     1      10.272   4.351  23.140  0.00  0.00    +0.000 OA
ATOM     25  C   UNL     1       8.873   4.129  23.043  0.00  0.00    +0.000 C 
ENDBRANCH  14  24
ENDBRANCH  12  15
ENDBRANCH   5  11
BRANCH   7  27
ATOM     26  OXT UNL     1      15.562   9.524  20.254  0.00  0.00    +0.000 OA
ATOM     27  C   UNL     1      15.946   9.467  21.405  0.00  0.00    +0.000 C 
BRANCH  27  28
ATOM     28  O   UNL     1      16.096  10.507  22.249  0.00  0.00    +0.000 OA
ATOM     29  H   UNL     1      15.381   6.084  21.601  0.00  0.00    +0.000 HD
ENDBRANCH  27  28
ENDBRANCH   7  27
BRANCH   8  30
ATOM     30  C   UNL     1      18.708   8.358  21.244  0.00  0.00    +0.000 C 
BRANCH  30  31
ATOM     31  S   UNL     1      20.052   7.177  21.046  0.00  0.00    +0.000 S 
BRANCH  31  35
ATOM     32  O   UNL     1      21.711   9.261  20.197  0.00  0.00    +0.000 OA
ATOM     33  N   UNL     1      21.133   7.523  18.711  0.00  0.00    +0.000 N 
ATOM     34  N   UNL     1      19.060   6.434  18.616  0.00  0.00    +0.000 NA
ATOM     35  C   UNL     1      19.998   6.985  19.301  0.00  0.00    +0.000 C 
ATOM     36  C   UNL     1      21.878   8.589  19.194  0.00  0.00    +0.000 C 
ATOM     37  C   UNL     1      19.165   6.358  17.168  0.00  0.00    +0.000 C 
ATOM     38  H   UNL     1      19.593   7.558  24.600  0.00  0.00    +0.000 HD
BRANCH  36  41
ATOM     39  O   UNL     1      23.025   8.594  17.152  0.00  0.00    +0.000 OA
ATOM     40  N   UNL     1      24.090   9.498  19.015  0.00  0.00    +0.000 N 
ATOM     41  C   UNL     1      23.063   8.901  18.331  0.00  0.00    +0.000 C 
ATOM     42  H   UNL     1      16.687   5.762  19.956  0.00  0.00    +0.000 HD
ATOM     43  H   UNL     1      16.687   5.762  19.956  0.00  0.00    +0.000 HD
ENDBRANCH  36  41
ENDBRANCH  31  35
ENDBRANCH  30  31
ENDBRANCH   8  30
TORSDOF 10
ENDMDL
MODEL 20
REMARK minimizedAffinity -6.76726627
REMARK minimizedRMSD -1
REMARK  Name = 117607705
REMARK  12 active torsions:
REMARK  status: ('A' for Active; 'I' for Inactive)
REMARK    1  A    between atoms: S_2  and  C_25
REMARK    2  A    between atoms: S_2  and  C_30
REMARK    3  A    between atoms: O_5  and  C_26
REMARK    4  A    between atoms: O_8  and  N_13
REMARK    5  A    between atoms: O_8  and  C_35
REMARK    6  A    between atoms: N_12  and  CA_20
REMARK    7  A    between atoms: N_16  and  C_34
REMARK    8  A    between atoms: CA_22  and  C_26
REMARK    9  A    between atoms: C_23  and  C_25
REMARK   10  A    between atoms: C_27  and  C_28
REMARK   11  A    between atoms: C_28  and  C_29
REMARK   12  A    between atoms: C_33  and  C_36
REMARK                            x       y       z     vdW  Elec       q    Type
REMARK                         _______ _______ _______ _____ _____    ______ ____
ROOT
ATOM      1  S   UNL     1      18.944   6.769  21.104  0.00  0.00    +0.000 S 
ATOM      2  O   UNL     1      15.679   9.774  19.689  0.00  0.00    +0.000 OA
ATOM      3  N   UNL     1      17.838   9.049  20.298  0.00  0.00    +0.000 N 
ATOM      4  C   UNL     1      17.995   8.256  21.506  0.00  0.00    +0.000 C 
ATOM      5  CA  UNL     1      16.449   8.169  21.538  0.00  0.00    +0.000 C 
ATOM      6  C   UNL     1      16.494   9.176  20.352  0.00  0.00    +0.000 C 
ATOM      7  CA  UNL     1      18.869   9.424  19.497  0.00  0.00    +0.000 C 
ATOM      8  C   UNL     1      20.096   8.864  19.610  0.00  0.00    +0.000 C 
ATOM      9  C   UNL     1      20.407   7.710  20.559  0.00  0.00    +0.000 C 
ENDROOT
BRANCH   5  11
ATOM     10  O   UNL     1      15.568   6.040  23.375  0.00  0.00    +0.000 OA
ATOM     11  N   UNL     1      15.828   6.894  21.204  0.00  0.00    +0.000 N 
ATOM     12  C   UNL     1      15.454   5.964  22.163  0.00  0.00    +0.000 C 
ATOM     13  H   UNL     1      18.310   7.299  18.878  0.00  0.00    +0.000 HD
BRANCH  12  15
ATOM     14  N   UNL     1      13.537   4.595  21.552  0.00  0.00    +0.000 NA
ATOM     15  C   UNL     1      14.828   4.726  21.577  0.00  0.00    +0.000 C 
BRANCH  15  19
ATOM     16  S   UNL     1      17.690   2.129  20.610  0.00  0.00    +0.000 S 
ATOM     17  N   UNL     1      15.268   2.823  20.035  0.00  0.00    +0.000 NA
ATOM     18  N   UNL     1      16.120   1.011  18.778  0.00  0.00    +0.000 N 
ATOM     19  C   UNL     1      15.714   3.660  21.038  0.00  0.00    +0.000 A 
ATOM     20  C   UNL     1      17.002   3.438  21.480  0.00  0.00    +0.000 A 
ATOM     21  C   UNL     1      16.226   1.976  19.729  0.00  0.00    +0.000 A 
ATOM     22  H   UNL     1      11.558   0.825  21.918  0.00  0.00    +0.000 HD
ATOM     23  H   UNL     1      11.558   0.825  21.918  0.00  0.00    +0.000 HD
ENDBRANCH  15  19
BRANCH  14  24
ATOM     24  O   UNL     1      12.890   5.704  22.114  0.00  0.00    +0.000 OA
ATOM     25  C   UNL     1      11.866   5.229  22.975  0.00  0.00    +0.000 C 
ENDBRANCH  14  24
ENDBRANCH  12  15
ENDBRANCH   5  11
BRANCH   7  27
ATOM     26  OXT UNL     1      18.244  10.154  17.323  0.00  0.00    +0.000 OA
ATOM     27  C   UNL     1      18.577  10.424  18.460  0.00  0.00    +0.000 C 
BRANCH  27  28
ATOM     28  O   UNL     1      18.738  11.660  18.972  0.00  0.00    +0.000 OA
ATOM     29  H   UNL     1      17.859   7.264  19.599  0.00  0.00    +0.000 HD
ENDBRANCH  27  28
ENDBRANCH   7  27
BRANCH   8  30
ATOM     30  C   UNL     1      21.310   9.286  18.816  0.00  0.00    +0.000 C 
BRANCH  30  31
ATOM     31  S   UNL     1      21.345   8.386  17.257  0.00  0.00    +0.000 S 
BRANCH  31  35
ATOM     32  O   UNL     1      19.471   6.314  17.355  0.00  0.00    +0.000 OA
ATOM     33  N   UNL     1      21.779   5.828  17.334  0.00  0.00    +0.000 N 
ATOM     34  N   UNL     1      23.453   7.081  18.395  0.00  0.00    +0.000 NA
ATOM     35  C   UNL     1      22.345   7.027  17.744  0.00  0.00    +0.000 C 
ATOM     36  C   UNL     1      20.424   5.575  17.177  0.00  0.00    +0.000 C 
ATOM     37  C   UNL     1      24.161   5.855  18.727  0.00  0.00    +0.000 C 
ATOM     38  H   UNL     1      19.524  11.447  16.704  0.00  0.00    +0.000 HD
BRANCH  36  41
ATOM     39  O   UNL     1      19.011   3.753  16.764  0.00  0.00    +0.000 OA
ATOM     40  N   UNL     1      21.267   3.540  16.229  0.00  0.00    +0.000 N 
ATOM     41  C   UNL     1      20.150   4.184  16.692  0.00  0.00    +0.000 C 
ATOM     42  H   UNL     1      18.634  10.422  20.146  0.00  0.00    +0.000 HD
ATOM     43  H   UNL     1      18.634  10.422  20.146  0.00  0.00    +0.000 HD
ENDBRANCH  36  41
ENDBRANCH  31  35
ENDBRANCH  30  31
ENDBRANCH   8  30
TORSDOF 10
ENDMDL
