MODEL 1
REMARK minimizedAffinity -8.14468002
REMARK minimizedRMSD -1
REMARK  Name = 88339242
REMARK  13 active torsions:
REMARK  status: ('A' for Active; 'I' for Inactive)
REMARK    1  A    between atoms: S_2  and  C_25
REMARK    2  A    between atoms: S_2  and  C_30
REMARK    3  A    between atoms: O_6  and  C_26
REMARK    4  A    between atoms: O_9  and  N_13
REMARK    5  A    between atoms: O_9  and  C_35
REMARK    6  A    between atoms: N_12  and  CA_20
REMARK    7  A    between atoms: N_17  and  C_34
REMARK    8  A    between atoms: CA_22  and  C_26
REMARK    9  A    between atoms: C_23  and  C_25
REMARK   10  A    between atoms: C_27  and  C_28
REMARK   11  A    between atoms: C_28  and  C_29
REMARK   12  A    between atoms: C_32  and  C_34
REMARK   13  A    between atoms: C_36  and  C_37
REMARK                            x       y       z     vdW  Elec       q    Type
REMARK                         _______ _______ _______ _____ _____    ______ ____
ROOT
ATOM      1  S   UNL     1      13.943   4.379  21.289  0.00  0.00    +0.000 S 
ATOM      2  O   UNL     1      12.534   3.910  25.703  0.00  0.00    +0.000 OA
ATOM      3  N   UNL     1      13.348   5.030  23.793  0.00  0.00    +0.000 N 
ATOM      4  C   UNL     1      12.686   4.802  22.521  0.00  0.00    +0.000 C 
ATOM      5  CA  UNL     1      11.981   3.609  23.211  0.00  0.00    +0.000 C 
ATOM      6  C   UNL     1      12.606   4.169  24.524  0.00  0.00    +0.000 C 
ATOM      7  CA  UNL     1      14.375   5.901  23.964  0.00  0.00    +0.000 C 
ATOM      8  C   UNL     1      15.059   6.406  22.910  0.00  0.00    +0.000 C 
ATOM      9  C   UNL     1      14.812   5.975  21.466  0.00  0.00    +0.000 C 
ENDROOT
BRANCH   5  11
ATOM     10  O   UNL     1      10.118   1.634  22.064  0.00  0.00    +0.000 OA
ATOM     11  N   UNL     1      10.525   3.664  23.170  0.00  0.00    +0.000 N 
ATOM     12  C   UNL     1       9.749   2.667  22.597  0.00  0.00    +0.000 C 
ATOM     13  H   UNL     1      11.084   5.855  22.432  0.00  0.00    +0.000 HD
BRANCH  12  15
ATOM     14  N   UNL     1       7.597   3.223  21.604  0.00  0.00    +0.000 NA
ATOM     15  C   UNL     1       8.271   2.945  22.678  0.00  0.00    +0.000 C 
BRANCH  15  19
ATOM     16  S   UNL     1       6.720   2.138  26.257  0.00  0.00    +0.000 S 
ATOM     17  N   UNL     1       6.943   4.013  24.493  0.00  0.00    +0.000 NA
ATOM     18  N   UNL     1       5.723   4.597  26.431  0.00  0.00    +0.000 N 
ATOM     19  C   UNL     1       7.604   2.901  24.007  0.00  0.00    +0.000 A 
ATOM     20  C   UNL     1       7.591   1.789  24.822  0.00  0.00    +0.000 A 
ATOM     21  C   UNL     1       6.438   3.725  25.672  0.00  0.00    +0.000 A 
ATOM     22  H   UNL     1       5.046   0.814  21.451  0.00  0.00    +0.000 HD
ATOM     23  H   UNL     1       5.046   0.814  21.451  0.00  0.00    +0.000 HD
ENDBRANCH  15  19
BRANCH  14  24
ATOM     24  O   UNL     1       6.243   3.456  21.884  0.00  0.00    +0.000 OA
ATOM     25  C   UNL     1       5.489   2.383  21.342  0.00  0.00    +0.000 C 
ENDBRANCH  14  24
ENDBRANCH  12  15
ENDBRANCH   5  11
BRANCH   7  27
ATOM     26  OXT UNL     1      15.634   5.656  25.966  0.00  0.00    +0.000 OA
ATOM     27  C   UNL     1      14.754   6.222  25.348  0.00  0.00    +0.000 C 
BRANCH  27  28
ATOM     28  O   UNL     1      13.978   7.225  25.803  0.00  0.00    +0.000 OA
ATOM     29  H   UNL     1      11.392   7.056  22.760  0.00  0.00    +0.000 HD
ENDBRANCH  27  28
ENDBRANCH   7  27
BRANCH   8  30
ATOM     30  C   UNL     1      16.155   7.439  23.012  0.00  0.00    +0.000 C 
BRANCH  30  31
ATOM     31  S   UNL     1      15.481   9.065  22.641  0.00  0.00    +0.000 S 
BRANCH  31  35
ATOM     32  S   UNL     1      18.012   9.452  20.918  0.00  0.00    +0.000 S 
ATOM     33  N   UNL     1      15.638   9.798  20.017  0.00  0.00    +0.000 NA
ATOM     34  N   UNL     1      16.484  10.065  18.955  0.00  0.00    +0.000 NA
ATOM     35  C   UNL     1      16.307   9.465  21.101  0.00  0.00    +0.000 A 
ATOM     36  C   UNL     1      17.748   9.923  19.290  0.00  0.00    +0.000 A 
BRANCH  36  37
ATOM     37  C   UNL     1      18.898  10.132  18.387  0.00  0.00    +0.000 C 
BRANCH  37  39
ATOM     38  O   UNL     1      19.046   7.623  16.932  0.00  0.00    +0.000 OA
ATOM     39  N   UNL     1      19.906   9.101  18.512  0.00  0.00    +0.000 N 
ATOM     40  C   UNL     1      19.889   7.933  17.770  0.00  0.00    +0.000 C 
ATOM     41  C   UNL     1      21.066   7.047  18.078  0.00  0.00    +0.000 C 
ATOM     42  H   UNL     1      20.873   8.044  15.049  0.00  0.00    +0.000 HD
ENDBRANCH  37  39
ENDBRANCH  36  37
ENDBRANCH  31  35
ENDBRANCH  30  31
ENDBRANCH   8  30
TORSDOF 11
ENDMDL
MODEL 2
REMARK minimizedAffinity -8.06408596
REMARK minimizedRMSD -1
REMARK  Name = 88339242
REMARK  13 active torsions:
REMARK  status: ('A' for Active; 'I' for Inactive)
REMARK    1  A    between atoms: S_2  and  C_25
REMARK    2  A    between atoms: S_2  and  C_30
REMARK    3  A    between atoms: O_6  and  C_26
REMARK    4  A    between atoms: O_9  and  N_13
REMARK    5  A    between atoms: O_9  and  C_35
REMARK    6  A    between atoms: N_12  and  CA_20
REMARK    7  A    between atoms: N_17  and  C_34
REMARK    8  A    between atoms: CA_22  and  C_26
REMARK    9  A    between atoms: C_23  and  C_25
REMARK   10  A    between atoms: C_27  and  C_28
REMARK   11  A    between atoms: C_28  and  C_29
REMARK   12  A    between atoms: C_32  and  C_34
REMARK   13  A    between atoms: C_36  and  C_37
REMARK                            x       y       z     vdW  Elec       q    Type
REMARK                         _______ _______ _______ _____ _____    ______ ____
ROOT
ATOM      1  S   UNL     1      18.582   6.112  18.409  0.00  0.00    +0.000 S 
ATOM      2  O   UNL     1      18.795  10.757  18.157  0.00  0.00    +0.000 OA
ATOM      3  N   UNL     1      18.460   8.653  19.169  0.00  0.00    +0.000 N 
ATOM      4  C   UNL     1      19.446   7.610  18.944  0.00  0.00    +0.000 C 
ATOM      5  CA  UNL     1      20.002   8.515  17.816  0.00  0.00    +0.000 C 
ATOM      6  C   UNL     1      19.025   9.590  18.376  0.00  0.00    +0.000 C 
ATOM      7  CA  UNL     1      17.382   8.509  19.981  0.00  0.00    +0.000 C 
ATOM      8  C   UNL     1      16.977   7.291  20.412  0.00  0.00    +0.000 C 
ATOM      9  C   UNL     1      17.619   5.983  19.954  0.00  0.00    +0.000 C 
ENDROOT
BRANCH   5  11
ATOM     10  O   UNL     1      22.286   7.480  16.268  0.00  0.00    +0.000 OA
ATOM     11  N   UNL     1      21.412   8.854  17.958  0.00  0.00    +0.000 N 
ATOM     12  C   UNL     1      22.405   8.297  17.166  0.00  0.00    +0.000 C 
ATOM     13  H   UNL     1      20.804   8.485  20.227  0.00  0.00    +0.000 HD
BRANCH  12  15
ATOM     14  N   UNL     1      24.565   9.239  16.553  0.00  0.00    +0.000 NA
ATOM     15  C   UNL     1      23.784   8.805  17.496  0.00  0.00    +0.000 C 
BRANCH  15  19
ATOM     16  S   UNL     1      25.108   8.065  21.179  0.00  0.00    +0.000 S 
ATOM     17  N   UNL     1      24.201   9.953  19.665  0.00  0.00    +0.000 NA
ATOM     18  N   UNL     1      24.740  10.606  21.872  0.00  0.00    +0.000 N 
ATOM     19  C   UNL     1      24.233   8.794  18.914  0.00  0.00    +0.000 A 
ATOM     20  C   UNL     1      24.693   7.668  19.563  0.00  0.00    +0.000 A 
ATOM     21  C   UNL     1      24.640   9.687  20.875  0.00  0.00    +0.000 A 
ATOM     22  H   UNL     1      20.446   7.039  18.972  0.00  0.00    +0.000 HD
ATOM     23  H   UNL     1      20.446   7.039  18.972  0.00  0.00    +0.000 HD
ENDBRANCH  15  19
BRANCH  14  24
ATOM     24  O   UNL     1      25.803   9.661  17.057  0.00  0.00    +0.000 OA
ATOM     25  C   UNL     1      26.763   9.556  16.016  0.00  0.00    +0.000 C 
ENDBRANCH  14  24
ENDBRANCH  12  15
ENDBRANCH   5  11
BRANCH   7  27
ATOM     26  OXT UNL     1      16.845  10.409  21.304  0.00  0.00    +0.000 OA
ATOM     27  C   UNL     1      16.634   9.729  20.320  0.00  0.00    +0.000 C 
BRANCH  27  28
ATOM     28  O   UNL     1      15.699   9.957  19.377  0.00  0.00    +0.000 OA
ATOM     29  H   UNL     1      16.085   6.374  17.648  0.00  0.00    +0.000 HD
ENDBRANCH  27  28
ENDBRANCH   7  27
BRANCH   8  30
ATOM     30  C   UNL     1      15.842   7.055  21.379  0.00  0.00    +0.000 C 
BRANCH  30  31
ATOM     31  S   UNL     1      16.464   6.192  22.831  0.00  0.00    +0.000 S 
BRANCH  31  35
ATOM     32  S   UNL     1      15.123   5.788  25.582  0.00  0.00    +0.000 S 
ATOM     33  N   UNL     1      14.223   7.405  23.808  0.00  0.00    +0.000 NA
ATOM     34  N   UNL     1      13.358   7.508  24.883  0.00  0.00    +0.000 NA
ATOM     35  C   UNL     1      15.189   6.542  24.043  0.00  0.00    +0.000 A 
ATOM     36  C   UNL     1      13.712   6.718  25.874  0.00  0.00    +0.000 A 
BRANCH  36  37
ATOM     37  C   UNL     1      13.001   6.595  27.162  0.00  0.00    +0.000 C 
BRANCH  37  39
ATOM     38  O   UNL     1      11.142   6.969  29.361  0.00  0.00    +0.000 OA
ATOM     39  N   UNL     1      12.360   7.826  27.571  0.00  0.00    +0.000 N 
ATOM     40  C   UNL     1      11.484   7.903  28.639  0.00  0.00    +0.000 C 
ATOM     41  C   UNL     1      10.982   9.304  28.863  0.00  0.00    +0.000 C 
ATOM     42  H   UNL     1      12.606   8.037  31.304  0.00  0.00    +0.000 HD
ENDBRANCH  37  39
ENDBRANCH  36  37
ENDBRANCH  31  35
ENDBRANCH  30  31
ENDBRANCH   8  30
TORSDOF 11
ENDMDL
MODEL 3
REMARK minimizedAffinity -8.0186224
REMARK minimizedRMSD -1
REMARK  Name = 88339242
REMARK  13 active torsions:
REMARK  status: ('A' for Active; 'I' for Inactive)
REMARK    1  A    between atoms: S_2  and  C_25
REMARK    2  A    between atoms: S_2  and  C_30
REMARK    3  A    between atoms: O_6  and  C_26
REMARK    4  A    between atoms: O_9  and  N_13
REMARK    5  A    between atoms: O_9  and  C_35
REMARK    6  A    between atoms: N_12  and  CA_20
REMARK    7  A    between atoms: N_17  and  C_34
REMARK    8  A    between atoms: CA_22  and  C_26
REMARK    9  A    between atoms: C_23  and  C_25
REMARK   10  A    between atoms: C_27  and  C_28
REMARK   11  A    between atoms: C_28  and  C_29
REMARK   12  A    between atoms: C_32  and  C_34
REMARK   13  A    between atoms: C_36  and  C_37
REMARK                            x       y       z     vdW  Elec       q    Type
REMARK                         _______ _______ _______ _____ _____    ______ ____
ROOT
ATOM      1  S   UNL     1      16.710   5.545  21.923  0.00  0.00    +0.000 S 
ATOM      2  O   UNL     1      14.145   7.407  25.335  0.00  0.00    +0.000 OA
ATOM      3  N   UNL     1      14.917   7.088  23.130  0.00  0.00    +0.000 N 
ATOM      4  C   UNL     1      15.055   5.731  22.632  0.00  0.00    +0.000 C 
ATOM      5  CA  UNL     1      14.889   5.278  24.104  0.00  0.00    +0.000 C 
ATOM      6  C   UNL     1      14.531   6.768  24.384  0.00  0.00    +0.000 C 
ATOM      7  CA  UNL     1      15.150   8.195  22.378  0.00  0.00    +0.000 C 
ATOM      8  C   UNL     1      15.812   8.123  21.199  0.00  0.00    +0.000 C 
ATOM      9  C   UNL     1      16.435   6.836  20.662  0.00  0.00    +0.000 C 
ENDROOT
BRANCH   5  11
ATOM     10  O   UNL     1      14.939   2.730  25.584  0.00  0.00    +0.000 OA
ATOM     11  N   UNL     1      13.791   4.346  24.326  0.00  0.00    +0.000 N 
ATOM     12  C   UNL     1      13.936   3.168  25.044  0.00  0.00    +0.000 C 
ATOM     13  H   UNL     1      13.567   4.762  21.996  0.00  0.00    +0.000 HD
BRANCH  12  15
ATOM     14  N   UNL     1      12.441   1.615  26.176  0.00  0.00    +0.000 NA
ATOM     15  C   UNL     1      12.662   2.372  25.144  0.00  0.00    +0.000 C 
BRANCH  15  19
ATOM     16  S   UNL     1      10.405   2.090  21.873  0.00  0.00    +0.000 S 
ATOM     17  N   UNL     1      10.630   3.369  24.108  0.00  0.00    +0.000 NA
ATOM     18  N   UNL     1       8.793   4.009  22.765  0.00  0.00    +0.000 N 
ATOM     19  C   UNL     1      11.670   2.463  24.039  0.00  0.00    +0.000 A 
ATOM     20  C   UNL     1      11.714   1.682  22.903  0.00  0.00    +0.000 A 
ATOM     21  C   UNL     1       9.899   3.261  23.021  0.00  0.00    +0.000 A 
ATOM     22  H   UNL     1      15.069   4.410  22.595  0.00  0.00    +0.000 HD
ATOM     23  H   UNL     1      15.069   4.410  22.595  0.00  0.00    +0.000 HD
ENDBRANCH  15  19
BRANCH  14  24
ATOM     24  O   UNL     1      11.209   0.953  26.082  0.00  0.00    +0.000 OA
ATOM     25  C   UNL     1      10.490   1.183  27.284  0.00  0.00    +0.000 C 
ENDBRANCH  14  24
ENDBRANCH  12  15
ENDBRANCH   5  11
BRANCH   7  27
ATOM     26  OXT UNL     1      15.456  10.326  23.385  0.00  0.00    +0.000 OA
ATOM     27  C   UNL     1      14.708   9.483  22.932  0.00  0.00    +0.000 C 
BRANCH  27  28
ATOM     28  O   UNL     1      13.365   9.566  22.856  0.00  0.00    +0.000 OA
ATOM     29  H   UNL     1      12.844   5.712  21.929  0.00  0.00    +0.000 HD
ENDBRANCH  27  28
ENDBRANCH   7  27
BRANCH   8  30
ATOM     30  C   UNL     1      16.038   9.291  20.269  0.00  0.00    +0.000 C 
BRANCH  30  31
ATOM     31  S   UNL     1      17.685   9.964  20.542  0.00  0.00    +0.000 S 
BRANCH  31  35
ATOM     32  S   UNL     1      19.752   8.509  18.770  0.00  0.00    +0.000 S 
ATOM     33  N   UNL     1      18.127  10.274  17.867  0.00  0.00    +0.000 NA
ATOM     34  N   UNL     1      18.880   9.866  16.780  0.00  0.00    +0.000 NA
ATOM     35  C   UNL     1      18.480   9.643  18.967  0.00  0.00    +0.000 A 
ATOM     36  C   UNL     1      19.763   8.950  17.113  0.00  0.00    +0.000 A 
BRANCH  36  37
ATOM     37  C   UNL     1      20.717   8.308  16.186  0.00  0.00    +0.000 C 
BRANCH  37  39
ATOM     38  O   UNL     1      19.582   5.812  15.230  0.00  0.00    +0.000 OA
ATOM     39  N   UNL     1      21.078   6.967  16.590  0.00  0.00    +0.000 N 
ATOM     40  C   UNL     1      20.475   5.834  16.073  0.00  0.00    +0.000 C 
ATOM     41  C   UNL     1      21.056   4.568  16.646  0.00  0.00    +0.000 C 
ATOM     42  H   UNL     1      21.358   4.891  13.483  0.00  0.00    +0.000 HD
ENDBRANCH  37  39
ENDBRANCH  36  37
ENDBRANCH  31  35
ENDBRANCH  30  31
ENDBRANCH   8  30
TORSDOF 11
ENDMDL
MODEL 4
REMARK minimizedAffinity -7.92307711
REMARK minimizedRMSD -1
REMARK  Name = 88339242
REMARK  13 active torsions:
REMARK  status: ('A' for Active; 'I' for Inactive)
REMARK    1  A    between atoms: S_2  and  C_25
REMARK    2  A    between atoms: S_2  and  C_30
REMARK    3  A    between atoms: O_6  and  C_26
REMARK    4  A    between atoms: O_9  and  N_13
REMARK    5  A    between atoms: O_9  and  C_35
REMARK    6  A    between atoms: N_12  and  CA_20
REMARK    7  A    between atoms: N_17  and  C_34
REMARK    8  A    between atoms: CA_22  and  C_26
REMARK    9  A    between atoms: C_23  and  C_25
REMARK   10  A    between atoms: C_27  and  C_28
REMARK   11  A    between atoms: C_28  and  C_29
REMARK   12  A    between atoms: C_32  and  C_34
REMARK   13  A    between atoms: C_36  and  C_37
REMARK                            x       y       z     vdW  Elec       q    Type
REMARK                         _______ _______ _______ _____ _____    ______ ____
ROOT
ATOM      1  S   UNL     1      19.670   5.488  20.305  0.00  0.00    +0.000 S 
ATOM      2  O   UNL     1      18.879  10.077  20.330  0.00  0.00    +0.000 OA
ATOM      3  N   UNL     1      18.964   7.896  19.437  0.00  0.00    +0.000 N 
ATOM      4  C   UNL     1      18.427   6.802  20.226  0.00  0.00    +0.000 C 
ATOM      5  CA  UNL     1      18.410   7.795  21.415  0.00  0.00    +0.000 C 
ATOM      6  C   UNL     1      18.759   8.874  20.346  0.00  0.00    +0.000 C 
ATOM      7  CA  UNL     1      19.461   7.748  18.182  0.00  0.00    +0.000 C 
ATOM      8  C   UNL     1      19.768   6.528  17.681  0.00  0.00    +0.000 C 
ATOM      9  C   UNL     1      19.682   5.240  18.496  0.00  0.00    +0.000 C 
ENDROOT
BRANCH   5  11
ATOM     10  O   UNL     1      17.138   6.110  23.470  0.00  0.00    +0.000 OA
ATOM     11  N   UNL     1      17.104   7.968  22.035  0.00  0.00    +0.000 N 
ATOM     12  C   UNL     1      16.607   7.103  22.999  0.00  0.00    +0.000 C 
ATOM     13  H   UNL     1      16.557   8.262  19.740  0.00  0.00    +0.000 HD
BRANCH  12  15
ATOM     14  N   UNL     1      14.785   8.689  23.300  0.00  0.00    +0.000 NA
ATOM     15  C   UNL     1      15.238   7.488  23.495  0.00  0.00    +0.000 C 
BRANCH  15  19
ATOM     16  S   UNL     1      13.374   5.037  26.022  0.00  0.00    +0.000 S 
ATOM     17  N   UNL     1      13.586   5.626  23.515  0.00  0.00    +0.000 NA
ATOM     18  N   UNL     1      12.088   3.866  24.010  0.00  0.00    +0.000 N 
ATOM     19  C   UNL     1      14.423   6.473  24.215  0.00  0.00    +0.000 A 
ATOM     20  C   UNL     1      14.443   6.304  25.583  0.00  0.00    +0.000 A 
ATOM     21  C   UNL     1      12.983   4.826  24.365  0.00  0.00    +0.000 A 
ATOM     22  H   UNL     1      18.291   4.904  24.161  0.00  0.00    +0.000 HD
ATOM     23  H   UNL     1      18.291   4.904  24.161  0.00  0.00    +0.000 HD
ENDBRANCH  15  19
BRANCH  14  24
ATOM     24  O   UNL     1      13.501   8.855  23.839  0.00  0.00    +0.000 OA
ATOM     25  C   UNL     1      12.590   9.024  22.764  0.00  0.00    +0.000 C 
ENDBRANCH  14  24
ENDBRANCH  12  15
ENDBRANCH   5  11
BRANCH   7  27
ATOM     26  OXT UNL     1      18.914   9.480  16.649  0.00  0.00    +0.000 OA
ATOM     27  C   UNL     1      19.711   8.977  17.415  0.00  0.00    +0.000 C 
BRANCH  27  28
ATOM     28  O   UNL     1      20.945   9.438  17.698  0.00  0.00    +0.000 OA
ATOM     29  H   UNL     1      22.110   6.126  19.609  0.00  0.00    +0.000 HD
ENDBRANCH  27  28
ENDBRANCH   7  27
BRANCH   8  30
ATOM     30  C   UNL     1      20.245   6.274  16.271  0.00  0.00    +0.000 C 
BRANCH  30  31
ATOM     31  S   UNL     1      21.857   5.476  16.320  0.00  0.00    +0.000 S 
BRANCH  31  35
ATOM     32  S   UNL     1      23.644   7.203  18.151  0.00  0.00    +0.000 S 
ATOM     33  N   UNL     1      23.274   7.715  15.667  0.00  0.00    +0.000 NA
ATOM     34  N   UNL     1      24.123   8.704  16.132  0.00  0.00    +0.000 NA
ATOM     35  C   UNL     1      22.949   6.866  16.620  0.00  0.00    +0.000 A 
ATOM     36  C   UNL     1      24.394   8.556  17.410  0.00  0.00    +0.000 A 
BRANCH  36  37
ATOM     37  C   UNL     1      25.268   9.441  18.205  0.00  0.00    +0.000 C 
BRANCH  37  39
ATOM     38  O   UNL     1      26.454  11.105  20.269  0.00  0.00    +0.000 OA
ATOM     39  N   UNL     1      24.696   9.795  19.486  0.00  0.00    +0.000 N 
ATOM     40  C   UNL     1      25.343  10.598  20.408  0.00  0.00    +0.000 C 
ATOM     41  C   UNL     1      24.516  10.828  21.644  0.00  0.00    +0.000 C 
ATOM     42  H   UNL     1      25.262  13.463  20.000  0.00  0.00    +0.000 HD
ENDBRANCH  37  39
ENDBRANCH  36  37
ENDBRANCH  31  35
ENDBRANCH  30  31
ENDBRANCH   8  30
TORSDOF 11
ENDMDL
MODEL 5
REMARK minimizedAffinity -7.90001917
REMARK minimizedRMSD -1
REMARK  Name = 88339242
REMARK  13 active torsions:
REMARK  status: ('A' for Active; 'I' for Inactive)
REMARK    1  A    between atoms: S_2  and  C_25
REMARK    2  A    between atoms: S_2  and  C_30
REMARK    3  A    between atoms: O_6  and  C_26
REMARK    4  A    between atoms: O_9  and  N_13
REMARK    5  A    between atoms: O_9  and  C_35
REMARK    6  A    between atoms: N_12  and  CA_20
REMARK    7  A    between atoms: N_17  and  C_34
REMARK    8  A    between atoms: CA_22  and  C_26
REMARK    9  A    between atoms: C_23  and  C_25
REMARK   10  A    between atoms: C_27  and  C_28
REMARK   11  A    between atoms: C_28  and  C_29
REMARK   12  A    between atoms: C_32  and  C_34
REMARK   13  A    between atoms: C_36  and  C_37
REMARK                            x       y       z     vdW  Elec       q    Type
REMARK                         _______ _______ _______ _____ _____    ______ ____
ROOT
ATOM      1  S   UNL     1      19.541   7.231  20.248  0.00  0.00    +0.000 S 
ATOM      2  O   UNL     1      19.821  10.159  16.639  0.00  0.00    +0.000 OA
ATOM      3  N   UNL     1      19.406   9.491  18.862  0.00  0.00    +0.000 N 
ATOM      4  C   UNL     1      20.390   8.660  19.532  0.00  0.00    +0.000 C 
ATOM      5  CA  UNL     1      21.020   8.447  18.133  0.00  0.00    +0.000 C 
ATOM      6  C   UNL     1      20.025   9.549  17.662  0.00  0.00    +0.000 C 
ATOM      7  CA  UNL     1      18.281   9.961  19.461  0.00  0.00    +0.000 C 
ATOM      8  C   UNL     1      17.839   9.451  20.635  0.00  0.00    +0.000 C 
ATOM      9  C   UNL     1      18.490   8.259  21.331  0.00  0.00    +0.000 C 
ENDROOT
BRANCH   5  11
ATOM     10  O   UNL     1      22.916   7.886  15.948  0.00  0.00    +0.000 OA
ATOM     11  N   UNL     1      22.423   8.828  18.041  0.00  0.00    +0.000 N 
ATOM     12  C   UNL     1      23.222   8.504  16.954  0.00  0.00    +0.000 C 
ATOM     13  H   UNL     1      22.333   7.961  20.254  0.00  0.00    +0.000 HD
BRANCH  12  15
ATOM     14  N   UNL     1      25.279   9.432  16.038  0.00  0.00    +0.000 NA
ATOM     15  C   UNL     1      24.635   9.009  17.084  0.00  0.00    +0.000 C 
BRANCH  15  19
ATOM     16  S   UNL     1      26.546   8.318  20.511  0.00  0.00    +0.000 S 
ATOM     17  N   UNL     1      25.213  10.126  19.232  0.00  0.00    +0.000 NA
ATOM     18  N   UNL     1      25.975  10.767  21.376  0.00  0.00    +0.000 N 
ATOM     19  C   UNL     1      25.278   9.006  18.426  0.00  0.00    +0.000 A 
ATOM     20  C   UNL     1      25.958   7.927  18.948  0.00  0.00    +0.000 A 
ATOM     21  C   UNL     1      25.847   9.877  20.356  0.00  0.00    +0.000 A 
ATOM     22  H   UNL     1      21.777   6.784  18.908  0.00  0.00    +0.000 HD
ATOM     23  H   UNL     1      21.777   6.784  18.908  0.00  0.00    +0.000 HD
ENDBRANCH  15  19
BRANCH  14  24
ATOM     24  O   UNL     1      26.576   9.853  16.361  0.00  0.00    +0.000 OA
ATOM     25  C   UNL     1      27.487   9.158  15.522  0.00  0.00    +0.000 C 
ENDBRANCH  14  24
ENDBRANCH  12  15
ENDBRANCH   5  11
BRANCH   7  27
ATOM     26  OXT UNL     1      16.654  10.780  17.935  0.00  0.00    +0.000 OA
ATOM     27  C   UNL     1      17.530  11.003  18.746  0.00  0.00    +0.000 C 
BRANCH  27  28
ATOM     28  O   UNL     1      17.970  12.217  19.132  0.00  0.00    +0.000 OA
ATOM     29  H   UNL     1      21.189  10.813  21.042  0.00  0.00    +0.000 HD
ENDBRANCH  27  28
ENDBRANCH   7  27
BRANCH   8  30
ATOM     30  C   UNL     1      16.648   9.974  21.403  0.00  0.00    +0.000 C 
BRANCH  30  31
ATOM     31  S   UNL     1      15.159   9.137  20.837  0.00  0.00    +0.000 S 
BRANCH  31  35
ATOM     32  S   UNL     1      15.020   7.060  23.117  0.00  0.00    +0.000 S 
ATOM     33  N   UNL     1      13.519   9.136  23.019  0.00  0.00    +0.000 NA
ATOM     34  N   UNL     1      13.158   8.465  24.174  0.00  0.00    +0.000 NA
ATOM     35  C   UNL     1      14.481   8.509  22.374  0.00  0.00    +0.000 A 
ATOM     36  C   UNL     1      13.862   7.367  24.344  0.00  0.00    +0.000 A 
BRANCH  36  37
ATOM     37  C   UNL     1      13.721   6.430  25.477  0.00  0.00    +0.000 C 
BRANCH  37  39
ATOM     38  O   UNL     1      14.704   3.714  25.188  0.00  0.00    +0.000 OA
ATOM     39  N   UNL     1      14.990   5.902  25.930  0.00  0.00    +0.000 N 
ATOM     40  C   UNL     1      15.369   4.584  25.744  0.00  0.00    +0.000 C 
ATOM     41  C   UNL     1      16.744   4.306  26.289  0.00  0.00    +0.000 C 
ATOM     42  H   UNL     1      16.404   3.826  23.149  0.00  0.00    +0.000 HD
ENDBRANCH  37  39
ENDBRANCH  36  37
ENDBRANCH  31  35
ENDBRANCH  30  31
ENDBRANCH   8  30
TORSDOF 11
ENDMDL
MODEL 6
REMARK minimizedAffinity -7.79585457
REMARK minimizedRMSD -1
REMARK  Name = 88339242
REMARK  13 active torsions:
REMARK  status: ('A' for Active; 'I' for Inactive)
REMARK    1  A    between atoms: S_2  and  C_25
REMARK    2  A    between atoms: S_2  and  C_30
REMARK    3  A    between atoms: O_6  and  C_26
REMARK    4  A    between atoms: O_9  and  N_13
REMARK    5  A    between atoms: O_9  and  C_35
REMARK    6  A    between atoms: N_12  and  CA_20
REMARK    7  A    between atoms: N_17  and  C_34
REMARK    8  A    between atoms: CA_22  and  C_26
REMARK    9  A    between atoms: C_23  and  C_25
REMARK   10  A    between atoms: C_27  and  C_28
REMARK   11  A    between atoms: C_28  and  C_29
REMARK   12  A    between atoms: C_32  and  C_34
REMARK   13  A    between atoms: C_36  and  C_37
REMARK                            x       y       z     vdW  Elec       q    Type
REMARK                         _______ _______ _______ _____ _____    ______ ____
ROOT
ATOM      1  S   UNL     1      16.367   5.433  21.460  0.00  0.00    +0.000 S 
ATOM      2  O   UNL     1      13.092   6.955  24.398  0.00  0.00    +0.000 OA
ATOM      3  N   UNL     1      14.430   6.950  22.456  0.00  0.00    +0.000 N 
ATOM      4  C   UNL     1      14.599   5.702  21.733  0.00  0.00    +0.000 C 
ATOM      5  CA  UNL     1      13.990   5.010  22.979  0.00  0.00    +0.000 C 
ATOM      6  C   UNL     1      13.681   6.457  23.468  0.00  0.00    +0.000 C 
ATOM      7  CA  UNL     1      14.950   8.136  22.046  0.00  0.00    +0.000 C 
ATOM      8  C   UNL     1      15.910   8.196  21.094  0.00  0.00    +0.000 C 
ATOM      9  C   UNL     1      16.560   6.959  20.477  0.00  0.00    +0.000 C 
ENDROOT
BRANCH   5  11
ATOM     10  O   UNL     1      12.220   3.658  24.908  0.00  0.00    +0.000 OA
ATOM     11  N   UNL     1      12.806   4.207  22.702  0.00  0.00    +0.000 N 
ATOM     12  C   UNL     1      12.047   3.615  23.701  0.00  0.00    +0.000 C 
ATOM     13  H   UNL     1      14.347   3.298  21.135  0.00  0.00    +0.000 HD
BRANCH  12  15
ATOM     14  N   UNL     1      11.055   1.721  22.535  0.00  0.00    +0.000 NA
ATOM     15  C   UNL     1      10.870   2.838  23.172  0.00  0.00    +0.000 C 
BRANCH  15  19
ATOM     16  S   UNL     1       7.363   4.727  23.190  0.00  0.00    +0.000 S 
ATOM     17  N   UNL     1       8.695   2.861  24.383  0.00  0.00    +0.000 NA
ATOM     18  N   UNL     1       6.521   3.240  25.228  0.00  0.00    +0.000 N 
ATOM     19  C   UNL     1       9.500   3.377  23.385  0.00  0.00    +0.000 A 
ATOM     20  C   UNL     1       8.951   4.394  22.634  0.00  0.00    +0.000 A 
ATOM     21  C   UNL     1       7.546   3.498  24.373  0.00  0.00    +0.000 A 
ATOM     22  H   UNL     1      12.048   6.238  25.041  0.00  0.00    +0.000 HD
ATOM     23  H   UNL     1      12.048   6.238  25.041  0.00  0.00    +0.000 HD
ENDBRANCH  15  19
BRANCH  14  24
ATOM     24  O   UNL     1       9.844   1.154  22.117  0.00  0.00    +0.000 OA
ATOM     25  C   UNL     1      10.031  -0.248  21.994  0.00  0.00    +0.000 C 
ENDBRANCH  14  24
ENDBRANCH  12  15
ENDBRANCH   5  11
BRANCH   7  27
ATOM     26  OXT UNL     1      15.167  10.075  23.403  0.00  0.00    +0.000 OA
ATOM     27  C   UNL     1      14.468   9.346  22.727  0.00  0.00    +0.000 C 
BRANCH  27  28
ATOM     28  O   UNL     1      13.153   9.504  22.482  0.00  0.00    +0.000 OA
ATOM     29  H   UNL     1      12.665   5.862  20.909  0.00  0.00    +0.000 HD
ENDBRANCH  27  28
ENDBRANCH   7  27
BRANCH   8  30
ATOM     30  C   UNL     1      16.478   9.475  20.527  0.00  0.00    +0.000 C 
BRANCH  30  31
ATOM     31  S   UNL     1      18.255   9.517  20.810  0.00  0.00    +0.000 S 
BRANCH  31  35
ATOM     32  S   UNL     1      20.393   8.471  18.845  0.00  0.00    +0.000 S 
ATOM     33  N   UNL     1      18.249   9.650  18.084  0.00  0.00    +0.000 NA
ATOM     34  N   UNL     1      18.937   9.339  16.925  0.00  0.00    +0.000 NA
ATOM     35  C   UNL     1      18.898   9.251  19.157  0.00  0.00    +0.000 A 
ATOM     36  C   UNL     1      20.072   8.724  17.179  0.00  0.00    +0.000 A 
BRANCH  36  37
ATOM     37  C   UNL     1      21.036   8.257  16.163  0.00  0.00    +0.000 C 
BRANCH  37  39
ATOM     38  O   UNL     1      19.405   5.957  15.471  0.00  0.00    +0.000 OA
ATOM     39  N   UNL     1      21.379   6.860  16.312  0.00  0.00    +0.000 N 
ATOM     40  C   UNL     1      20.529   5.830  15.952  0.00  0.00    +0.000 C 
ATOM     41  C   UNL     1      21.142   4.476  16.189  0.00  0.00    +0.000 C 
ATOM     42  H   UNL     1      20.384   5.110  13.151  0.00  0.00    +0.000 HD
ENDBRANCH  37  39
ENDBRANCH  36  37
ENDBRANCH  31  35
ENDBRANCH  30  31
ENDBRANCH   8  30
TORSDOF 11
ENDMDL
MODEL 7
REMARK minimizedAffinity -7.74477053
REMARK minimizedRMSD -1
REMARK  Name = 88339242
REMARK  13 active torsions:
REMARK  status: ('A' for Active; 'I' for Inactive)
REMARK    1  A    between atoms: S_2  and  C_25
REMARK    2  A    between atoms: S_2  and  C_30
REMARK    3  A    between atoms: O_6  and  C_26
REMARK    4  A    between atoms: O_9  and  N_13
REMARK    5  A    between atoms: O_9  and  C_35
REMARK    6  A    between atoms: N_12  and  CA_20
REMARK    7  A    between atoms: N_17  and  C_34
REMARK    8  A    between atoms: CA_22  and  C_26
REMARK    9  A    between atoms: C_23  and  C_25
REMARK   10  A    between atoms: C_27  and  C_28
REMARK   11  A    between atoms: C_28  and  C_29
REMARK   12  A    between atoms: C_32  and  C_34
REMARK   13  A    between atoms: C_36  and  C_37
REMARK                            x       y       z     vdW  Elec       q    Type
REMARK                         _______ _______ _______ _____ _____    ______ ____
ROOT
ATOM      1  S   UNL     1      16.485   5.807  23.867  0.00  0.00    +0.000 S 
ATOM      2  O   UNL     1      12.973   8.483  22.390  0.00  0.00    +0.000 OA
ATOM      3  N   UNL     1      15.048   7.368  22.272  0.00  0.00    +0.000 N 
ATOM      4  C   UNL     1      15.115   5.981  22.698  0.00  0.00    +0.000 C 
ATOM      5  CA  UNL     1      13.713   6.205  23.319  0.00  0.00    +0.000 C 
ATOM      6  C   UNL     1      13.746   7.572  22.572  0.00  0.00    +0.000 C 
ATOM      7  CA  UNL     1      16.100   8.049  21.750  0.00  0.00    +0.000 C 
ATOM      8  C   UNL     1      17.367   7.584  21.858  0.00  0.00    +0.000 C 
ATOM      9  C   UNL     1      17.738   6.331  22.648  0.00  0.00    +0.000 C 
ENDROOT
BRANCH   5  11
ATOM     10  O   UNL     1      12.327   4.086  24.826  0.00  0.00    +0.000 OA
ATOM     11  N   UNL     1      12.690   5.286  22.841  0.00  0.00    +0.000 N 
ATOM     12  C   UNL     1      12.106   4.321  23.649  0.00  0.00    +0.000 C 
ATOM     13  H   UNL     1      14.294   5.126  21.093  0.00  0.00    +0.000 HD
BRANCH  12  15
ATOM     14  N   UNL     1      11.436   2.583  22.082  0.00  0.00    +0.000 NA
ATOM     15  C   UNL     1      11.071   3.493  22.934  0.00  0.00    +0.000 C 
BRANCH  15  19
ATOM     16  S   UNL     1       7.274   4.671  23.175  0.00  0.00    +0.000 S 
ATOM     17  N   UNL     1       8.973   3.002  24.180  0.00  0.00    +0.000 NA
ATOM     18  N   UNL     1       6.795   2.891  25.091  0.00  0.00    +0.000 N 
ATOM     19  C   UNL     1       9.632   3.741  23.216  0.00  0.00    +0.000 A 
ATOM     20  C   UNL     1       8.876   4.693  22.565  0.00  0.00    +0.000 A 
ATOM     21  C   UNL     1       7.724   3.407  24.244  0.00  0.00    +0.000 A 
ATOM     22  H   UNL     1      11.649   6.892  25.068  0.00  0.00    +0.000 HD
ATOM     23  H   UNL     1      11.649   6.892  25.068  0.00  0.00    +0.000 HD
ENDBRANCH  15  19
BRANCH  14  24
ATOM     24  O   UNL     1      10.333   1.926  21.518  0.00  0.00    +0.000 OA
ATOM     25  C   UNL     1      10.434   0.546  21.829  0.00  0.00    +0.000 C 
ENDBRANCH  14  24
ENDBRANCH  12  15
ENDBRANCH   5  11
BRANCH   7  27
ATOM     26  OXT UNL     1      15.409   9.475  19.979  0.00  0.00    +0.000 OA
ATOM     27  C   UNL     1      15.809   9.344  21.118  0.00  0.00    +0.000 C 
BRANCH  27  28
ATOM     28  O   UNL     1      16.056  10.336  21.996  0.00  0.00    +0.000 OA
ATOM     29  H   UNL     1      17.951   7.993  24.623  0.00  0.00    +0.000 HD
ENDBRANCH  27  28
ENDBRANCH   7  27
BRANCH   8  30
ATOM     30  C   UNL     1      18.578   8.239  21.235  0.00  0.00    +0.000 C 
BRANCH  30  31
ATOM     31  S   UNL     1      18.727   7.710  19.522  0.00  0.00    +0.000 S 
BRANCH  31  35
ATOM     32  S   UNL     1      21.724   7.885  20.242  0.00  0.00    +0.000 S 
ATOM     33  N   UNL     1      20.771   8.689  18.003  0.00  0.00    +0.000 NA
ATOM     34  N   UNL     1      22.131   8.936  17.942  0.00  0.00    +0.000 NA
ATOM     35  C   UNL     1      20.427   8.142  19.149  0.00  0.00    +0.000 A 
ATOM     36  C   UNL     1      22.746   8.564  19.044  0.00  0.00    +0.000 A 
BRANCH  36  37
ATOM     37  C   UNL     1      24.195   8.689  19.296  0.00  0.00    +0.000 C 
BRANCH  37  39
ATOM     38  O   UNL     1      25.151  11.256  20.261  0.00  0.00    +0.000 OA
ATOM     39  N   UNL     1      24.499   9.057  20.662  0.00  0.00    +0.000 N 
ATOM     40  C   UNL     1      24.953  10.314  21.024  0.00  0.00    +0.000 C 
ATOM     41  C   UNL     1      25.167  10.436  22.509  0.00  0.00    +0.000 C 
ATOM     42  H   UNL     1      23.000  12.436  21.279  0.00  0.00    +0.000 HD
ENDBRANCH  37  39
ENDBRANCH  36  37
ENDBRANCH  31  35
ENDBRANCH  30  31
ENDBRANCH   8  30
TORSDOF 11
ENDMDL
MODEL 8
REMARK minimizedAffinity -7.72529888
REMARK minimizedRMSD -1
REMARK  Name = 88339242
REMARK  13 active torsions:
REMARK  status: ('A' for Active; 'I' for Inactive)
REMARK    1  A    between atoms: S_2  and  C_25
REMARK    2  A    between atoms: S_2  and  C_30
REMARK    3  A    between atoms: O_6  and  C_26
REMARK    4  A    between atoms: O_9  and  N_13
REMARK    5  A    between atoms: O_9  and  C_35
REMARK    6  A    between atoms: N_12  and  CA_20
REMARK    7  A    between atoms: N_17  and  C_34
REMARK    8  A    between atoms: CA_22  and  C_26
REMARK    9  A    between atoms: C_23  and  C_25
REMARK   10  A    between atoms: C_27  and  C_28
REMARK   11  A    between atoms: C_28  and  C_29
REMARK   12  A    between atoms: C_32  and  C_34
REMARK   13  A    between atoms: C_36  and  C_37
REMARK                            x       y       z     vdW  Elec       q    Type
REMARK                         _______ _______ _______ _____ _____    ______ ____
ROOT
ATOM      1  S   UNL     1      16.653   5.823  23.745  0.00  0.00    +0.000 S 
ATOM      2  O   UNL     1      13.013   8.409  22.423  0.00  0.00    +0.000 OA
ATOM      3  N   UNL     1      15.116   7.361  22.221  0.00  0.00    +0.000 N 
ATOM      4  C   UNL     1      15.240   5.971  22.624  0.00  0.00    +0.000 C 
ATOM      5  CA  UNL     1      13.854   6.142  23.294  0.00  0.00    +0.000 C 
ATOM      6  C   UNL     1      13.819   7.519  22.567  0.00  0.00    +0.000 C 
ATOM      7  CA  UNL     1      16.129   8.081  21.675  0.00  0.00    +0.000 C 
ATOM      8  C   UNL     1      17.413   7.655  21.735  0.00  0.00    +0.000 C 
ATOM      9  C   UNL     1      17.848   6.403  22.493  0.00  0.00    +0.000 C 
ENDROOT
BRANCH   5  11
ATOM     10  O   UNL     1      12.327   4.195  24.895  0.00  0.00    +0.000 OA
ATOM     11  N   UNL     1      12.844   5.198  22.836  0.00  0.00    +0.000 N 
ATOM     12  C   UNL     1      12.188   4.322  23.690  0.00  0.00    +0.000 C 
ATOM     13  H   UNL     1      14.555   4.849  21.222  0.00  0.00    +0.000 HD
BRANCH  12  15
ATOM     14  N   UNL     1      11.556   2.681  22.006  0.00  0.00    +0.000 NA
ATOM     15  C   UNL     1      11.185   3.447  22.987  0.00  0.00    +0.000 C 
BRANCH  15  19
ATOM     16  S   UNL     1       7.576   2.984  24.610  0.00  0.00    +0.000 S 
ATOM     17  N   UNL     1       8.887   4.399  22.889  0.00  0.00    +0.000 NA
ATOM     18  N   UNL     1       6.605   4.968  23.129  0.00  0.00    +0.000 N 
ATOM     19  C   UNL     1       9.765   3.481  23.432  0.00  0.00    +0.000 A 
ATOM     20  C   UNL     1       9.238   2.630  24.379  0.00  0.00    +0.000 A 
ATOM     21  C   UNL     1       7.704   4.229  23.436  0.00  0.00    +0.000 A 
ATOM     22  H   UNL     1      10.015   0.179  20.890  0.00  0.00    +0.000 HD
ATOM     23  H   UNL     1      10.015   0.179  20.890  0.00  0.00    +0.000 HD
ENDBRANCH  15  19
BRANCH  14  24
ATOM     24  O   UNL     1      10.482   1.951  21.480  0.00  0.00    +0.000 OA
ATOM     25  C   UNL     1      10.724   0.573  21.719  0.00  0.00    +0.000 C 
ENDBRANCH  14  24
ENDBRANCH  12  15
ENDBRANCH   5  11
BRANCH   7  27
ATOM     26  OXT UNL     1      15.370   9.513  19.936  0.00  0.00    +0.000 OA
ATOM     27  C   UNL     1      15.777   9.375  21.072  0.00  0.00    +0.000 C 
BRANCH  27  28
ATOM     28  O   UNL     1      15.979  10.358  21.972  0.00  0.00    +0.000 OA
ATOM     29  H   UNL     1      17.984   8.048  24.546  0.00  0.00    +0.000 HD
ENDBRANCH  27  28
ENDBRANCH   7  27
BRANCH   8  30
ATOM     30  C   UNL     1      18.581   8.356  21.082  0.00  0.00    +0.000 C 
BRANCH  30  31
ATOM     31  S   UNL     1      19.926   7.184  20.849  0.00  0.00    +0.000 S 
BRANCH  31  35
ATOM     32  S   UNL     1      20.817   5.695  18.295  0.00  0.00    +0.000 S 
ATOM     33  N   UNL     1      18.842   7.329  18.348  0.00  0.00    +0.000 NA
ATOM     34  N   UNL     1      18.921   6.878  17.043  0.00  0.00    +0.000 NA
ATOM     35  C   UNL     1      19.774   6.789  19.106  0.00  0.00    +0.000 A 
ATOM     36  C   UNL     1      19.907   6.022  16.879  0.00  0.00    +0.000 A 
BRANCH  36  37
ATOM     37  C   UNL     1      20.257   5.357  15.608  0.00  0.00    +0.000 C 
BRANCH  37  39
ATOM     38  O   UNL     1      20.386   3.330  13.532  0.00  0.00    +0.000 OA
ATOM     39  N   UNL     1      20.548   3.949  15.771  0.00  0.00    +0.000 N 
ATOM     40  C   UNL     1      20.586   3.058  14.713  0.00  0.00    +0.000 C 
ATOM     41  C   UNL     1      20.936   1.662  15.158  0.00  0.00    +0.000 C 
ATOM     42  H   UNL     1      22.982   2.984  13.090  0.00  0.00    +0.000 HD
ENDBRANCH  37  39
ENDBRANCH  36  37
ENDBRANCH  31  35
ENDBRANCH  30  31
ENDBRANCH   8  30
TORSDOF 11
ENDMDL
MODEL 9
REMARK minimizedAffinity -7.61236238
REMARK minimizedRMSD -1
REMARK  Name = 88339242
REMARK  13 active torsions:
REMARK  status: ('A' for Active; 'I' for Inactive)
REMARK    1  A    between atoms: S_2  and  C_25
REMARK    2  A    between atoms: S_2  and  C_30
REMARK    3  A    between atoms: O_6  and  C_26
REMARK    4  A    between atoms: O_9  and  N_13
REMARK    5  A    between atoms: O_9  and  C_35
REMARK    6  A    between atoms: N_12  and  CA_20
REMARK    7  A    between atoms: N_17  and  C_34
REMARK    8  A    between atoms: CA_22  and  C_26
REMARK    9  A    between atoms: C_23  and  C_25
REMARK   10  A    between atoms: C_27  and  C_28
REMARK   11  A    between atoms: C_28  and  C_29
REMARK   12  A    between atoms: C_32  and  C_34
REMARK   13  A    between atoms: C_36  and  C_37
REMARK                            x       y       z     vdW  Elec       q    Type
REMARK                         _______ _______ _______ _____ _____    ______ ____
ROOT
ATOM      1  S   UNL     1      17.991   5.695  19.212  0.00  0.00    +0.000 S 
ATOM      2  O   UNL     1      18.336  10.191  18.054  0.00  0.00    +0.000 OA
ATOM      3  N   UNL     1      18.019   8.336  19.475  0.00  0.00    +0.000 N 
ATOM      4  C   UNL     1      18.946   7.223  19.380  0.00  0.00    +0.000 C 
ATOM      5  CA  UNL     1      19.435   7.869  18.059  0.00  0.00    +0.000 C 
ATOM      6  C   UNL     1      18.545   9.078  18.475  0.00  0.00    +0.000 C 
ATOM      7  CA  UNL     1      17.009   8.402  20.380  0.00  0.00    +0.000 C 
ATOM      8  C   UNL     1      16.603   7.308  21.067  0.00  0.00    +0.000 C 
ATOM      9  C   UNL     1      17.159   5.908  20.823  0.00  0.00    +0.000 C 
ENDROOT
BRANCH   5  11
ATOM     10  O   UNL     1      21.316   7.473  15.825  0.00  0.00    +0.000 OA
ATOM     11  N   UNL     1      20.862   8.160  18.024  0.00  0.00    +0.000 N 
ATOM     12  C   UNL     1      21.651   7.929  16.907  0.00  0.00    +0.000 C 
ATOM     13  H   UNL     1      20.684   7.014  20.100  0.00  0.00    +0.000 HD
BRANCH  12  15
ATOM     14  N   UNL     1      23.847   8.589  16.087  0.00  0.00    +0.000 NA
ATOM     15  C   UNL     1      23.094   8.312  17.108  0.00  0.00    +0.000 C 
BRANCH  15  19
ATOM     16  S   UNL     1      24.639   7.719  20.732  0.00  0.00    +0.000 S 
ATOM     17  N   UNL     1      23.697   9.557  19.178  0.00  0.00    +0.000 NA
ATOM     18  N   UNL     1      24.407  10.306  21.304  0.00  0.00    +0.000 N 
ATOM     19  C   UNL     1      23.638   8.359  18.492  0.00  0.00    +0.000 A 
ATOM     20  C   UNL     1      24.102   7.253  19.171  0.00  0.00    +0.000 A 
ATOM     21  C   UNL     1      24.207   9.340  20.369  0.00  0.00    +0.000 A 
ATOM     22  H   UNL     1      19.805   6.754  18.898  0.00  0.00    +0.000 HD
ATOM     23  H   UNL     1      19.805   6.754  18.898  0.00  0.00    +0.000 HD
ENDBRANCH  15  19
BRANCH  14  24
ATOM     24  O   UNL     1      25.153   8.915  16.477  0.00  0.00    +0.000 OA
ATOM     25  C   UNL     1      25.654   9.888  15.574  0.00  0.00    +0.000 C 
ENDBRANCH  14  24
ENDBRANCH  12  15
ENDBRANCH   5  11
BRANCH   7  27
ATOM     26  OXT UNL     1      16.598  10.509  21.400  0.00  0.00    +0.000 OA
ATOM     27  C   UNL     1      16.334   9.699  20.534  0.00  0.00    +0.000 C 
BRANCH  27  28
ATOM     28  O   UNL     1      15.397   9.832  19.575  0.00  0.00    +0.000 OA
ATOM     29  H   UNL     1      15.559   6.010  18.415  0.00  0.00    +0.000 HD
ENDBRANCH  27  28
ENDBRANCH   7  27
BRANCH   8  30
ATOM     30  C   UNL     1      15.546   7.316  22.147  0.00  0.00    +0.000 C 
BRANCH  30  31
ATOM     31  S   UNL     1      15.915   6.033  23.353  0.00  0.00    +0.000 S 
BRANCH  31  35
ATOM     32  S   UNL     1      13.410   4.669  22.174  0.00  0.00    +0.000 S 
ATOM     33  N   UNL     1      13.779   4.985  24.690  0.00  0.00    +0.000 NA
ATOM     34  N   UNL     1      12.559   4.345  24.568  0.00  0.00    +0.000 NA
ATOM     35  C   UNL     1      14.329   5.212  23.516  0.00  0.00    +0.000 A 
ATOM     36  C   UNL     1      12.247   4.121  23.310  0.00  0.00    +0.000 A 
BRANCH  36  37
ATOM     37  C   UNL     1      11.015   3.456  22.841  0.00  0.00    +0.000 C 
BRANCH  37  39
ATOM     38  O   UNL     1       8.276   2.756  22.180  0.00  0.00    +0.000 OA
ATOM     39  N   UNL     1       9.828   4.255  23.055  0.00  0.00    +0.000 N 
ATOM     40  C   UNL     1       8.558   3.831  22.703  0.00  0.00    +0.000 C 
ATOM     41  C   UNL     1       7.502   4.843  23.059  0.00  0.00    +0.000 C 
ATOM     42  H   UNL     1       7.197   2.003  24.488  0.00  0.00    +0.000 HD
ENDBRANCH  37  39
ENDBRANCH  36  37
ENDBRANCH  31  35
ENDBRANCH  30  31
ENDBRANCH   8  30
TORSDOF 11
ENDMDL
MODEL 10
REMARK minimizedAffinity -7.59711742
REMARK minimizedRMSD -1
REMARK  Name = 88339242
REMARK  13 active torsions:
REMARK  status: ('A' for Active; 'I' for Inactive)
REMARK    1  A    between atoms: S_2  and  C_25
REMARK    2  A    between atoms: S_2  and  C_30
REMARK    3  A    between atoms: O_6  and  C_26
REMARK    4  A    between atoms: O_9  and  N_13
REMARK    5  A    between atoms: O_9  and  C_35
REMARK    6  A    between atoms: N_12  and  CA_20
REMARK    7  A    between atoms: N_17  and  C_34
REMARK    8  A    between atoms: CA_22  and  C_26
REMARK    9  A    between atoms: C_23  and  C_25
REMARK   10  A    between atoms: C_27  and  C_28
REMARK   11  A    between atoms: C_28  and  C_29
REMARK   12  A    between atoms: C_32  and  C_34
REMARK   13  A    between atoms: C_36  and  C_37
REMARK                            x       y       z     vdW  Elec       q    Type
REMARK                         _______ _______ _______ _____ _____    ______ ____
ROOT
ATOM      1  S   UNL     1      16.052   5.554  21.569  0.00  0.00    +0.000 S 
ATOM      2  O   UNL     1      13.394   7.416  24.908  0.00  0.00    +0.000 OA
ATOM      3  N   UNL     1      14.420   7.255  22.791  0.00  0.00    +0.000 N 
ATOM      4  C   UNL     1      14.373   5.983  22.092  0.00  0.00    +0.000 C 
ATOM      5  CA  UNL     1      13.902   5.372  23.436  0.00  0.00    +0.000 C 
ATOM      6  C   UNL     1      13.793   6.850  23.918  0.00  0.00    +0.000 C 
ATOM      7  CA  UNL     1      14.970   8.382  22.270  0.00  0.00    +0.000 C 
ATOM      8  C   UNL     1      15.779   8.338  21.185  0.00  0.00    +0.000 C 
ATOM      9  C   UNL     1      16.222   7.038  20.519  0.00  0.00    +0.000 C 
ENDROOT
BRANCH   5  11
ATOM     10  O   UNL     1      12.786   3.429  25.350  0.00  0.00    +0.000 OA
ATOM     11  N   UNL     1      12.627   4.671  23.364  0.00  0.00    +0.000 N 
ATOM     12  C   UNL     1      12.206   3.771  24.332  0.00  0.00    +0.000 C 
ATOM     13  H   UNL     1      13.446   4.351  21.154  0.00  0.00    +0.000 HD
BRANCH  12  15
ATOM     14  N   UNL     1       9.935   3.887  23.462  0.00  0.00    +0.000 NA
ATOM     15  C   UNL     1      10.853   3.176  24.042  0.00  0.00    +0.000 C 
BRANCH  15  19
ATOM     16  S   UNL     1       9.886  -0.306  25.719  0.00  0.00    +0.000 S 
ATOM     17  N   UNL     1      10.922   0.729  23.589  0.00  0.00    +0.000 NA
ATOM     18  N   UNL     1      10.787  -1.631  23.597  0.00  0.00    +0.000 N 
ATOM     19  C   UNL     1      10.589   1.766  24.439  0.00  0.00    +0.000 A 
ATOM     20  C   UNL     1      10.018   1.402  25.639  0.00  0.00    +0.000 A 
ATOM     21  C   UNL     1      10.596  -0.409  24.161  0.00  0.00    +0.000 A 
ATOM     22  H   UNL     1      13.976   2.876  26.612  0.00  0.00    +0.000 HD
ATOM     23  H   UNL     1      13.976   2.876  26.612  0.00  0.00    +0.000 HD
ENDBRANCH  15  19
BRANCH  14  24
ATOM     24  O   UNL     1       8.749   3.162  23.285  0.00  0.00    +0.000 OA
ATOM     25  C   UNL     1       8.211   3.497  22.015  0.00  0.00    +0.000 C 
ENDBRANCH  14  24
ENDBRANCH  12  15
ENDBRANCH   5  11
BRANCH   7  27
ATOM     26  OXT UNL     1      15.557  10.355  23.457  0.00  0.00    +0.000 OA
ATOM     27  C   UNL     1      14.699   9.643  22.975  0.00  0.00    +0.000 C 
BRANCH  27  28
ATOM     28  O   UNL     1      13.371   9.868  22.996  0.00  0.00    +0.000 OA
ATOM     29  H   UNL     1      12.391   6.203  21.736  0.00  0.00    +0.000 HD
ENDBRANCH  27  28
ENDBRANCH   7  27
BRANCH   8  30
ATOM     30  C   UNL     1      16.360   9.552  20.499  0.00  0.00    +0.000 C 
BRANCH  30  31
ATOM     31  S   UNL     1      18.134   9.613  20.796  0.00  0.00    +0.000 S 
BRANCH  31  35
ATOM     32  S   UNL     1      20.253   8.466  18.867  0.00  0.00    +0.000 S 
ATOM     33  N   UNL     1      18.186   9.757  18.072  0.00  0.00    +0.000 NA
ATOM     34  N   UNL     1      18.880   9.416  16.924  0.00  0.00    +0.000 NA
ATOM     35  C   UNL     1      18.794   9.321  19.155  0.00  0.00    +0.000 A 
ATOM     36  C   UNL     1      19.976   8.742  17.197  0.00  0.00    +0.000 A 
BRANCH  36  37
ATOM     37  C   UNL     1      20.935   8.231  16.196  0.00  0.00    +0.000 C 
BRANCH  37  39
ATOM     38  O   UNL     1      19.554   5.862  15.241  0.00  0.00    +0.000 OA
ATOM     39  N   UNL     1      21.300   6.849  16.422  0.00  0.00    +0.000 N 
ATOM     40  C   UNL     1      20.573   5.784  15.922  0.00  0.00    +0.000 C 
ATOM     41  C   UNL     1      21.187   4.457  16.283  0.00  0.00    +0.000 C 
ATOM     42  H   UNL     1      20.978   5.049  13.151  0.00  0.00    +0.000 HD
ENDBRANCH  37  39
ENDBRANCH  36  37
ENDBRANCH  31  35
ENDBRANCH  30  31
ENDBRANCH   8  30
TORSDOF 11
ENDMDL
MODEL 11
REMARK minimizedAffinity -7.46622705
REMARK minimizedRMSD -1
REMARK  Name = 88339242
REMARK  13 active torsions:
REMARK  status: ('A' for Active; 'I' for Inactive)
REMARK    1  A    between atoms: S_2  and  C_25
REMARK    2  A    between atoms: S_2  and  C_30
REMARK    3  A    between atoms: O_6  and  C_26
REMARK    4  A    between atoms: O_9  and  N_13
REMARK    5  A    between atoms: O_9  and  C_35
REMARK    6  A    between atoms: N_12  and  CA_20
REMARK    7  A    between atoms: N_17  and  C_34
REMARK    8  A    between atoms: CA_22  and  C_26
REMARK    9  A    between atoms: C_23  and  C_25
REMARK   10  A    between atoms: C_27  and  C_28
REMARK   11  A    between atoms: C_28  and  C_29
REMARK   12  A    between atoms: C_32  and  C_34
REMARK   13  A    between atoms: C_36  and  C_37
REMARK                            x       y       z     vdW  Elec       q    Type
REMARK                         _______ _______ _______ _____ _____    ______ ____
ROOT
ATOM      1  S   UNL     1      19.653   7.317  21.074  0.00  0.00    +0.000 S 
ATOM      2  O   UNL     1      16.205  10.446  21.150  0.00  0.00    +0.000 OA
ATOM      3  N   UNL     1      17.757   8.951  20.190  0.00  0.00    +0.000 N 
ATOM      4  C   UNL     1      17.896   7.628  20.772  0.00  0.00    +0.000 C 
ATOM      5  CA  UNL     1      17.085   8.176  21.973  0.00  0.00    +0.000 C 
ATOM      6  C   UNL     1      16.853   9.428  21.075  0.00  0.00    +0.000 C 
ATOM      7  CA  UNL     1      18.426   9.363  19.083  0.00  0.00    +0.000 C 
ATOM      8  C   UNL     1      19.493   8.681  18.606  0.00  0.00    +0.000 C 
ATOM      9  C   UNL     1      20.097   7.467  19.310  0.00  0.00    +0.000 C 
ENDROOT
BRANCH   5  11
ATOM     10  O   UNL     1      16.836   5.679  23.518  0.00  0.00    +0.000 OA
ATOM     11  N   UNL     1      15.875   7.423  22.274  0.00  0.00    +0.000 N 
ATOM     12  C   UNL     1      15.882   6.251  23.017  0.00  0.00    +0.000 C 
ATOM     13  H   UNL     1      15.593   7.820  19.947  0.00  0.00    +0.000 HD
BRANCH  12  15
ATOM     14  N   UNL     1      13.826   5.259  22.171  0.00  0.00    +0.000 NA
ATOM     15  C   UNL     1      14.511   5.655  23.200  0.00  0.00    +0.000 C 
BRANCH  15  19
ATOM     16  S   UNL     1      13.026   6.070  26.873  0.00  0.00    +0.000 S 
ATOM     17  N   UNL     1      13.752   4.294  25.142  0.00  0.00    +0.000 NA
ATOM     18  N   UNL     1      12.946   3.431  27.189  0.00  0.00    +0.000 N 
ATOM     19  C   UNL     1      13.957   5.538  24.576  0.00  0.00    +0.000 A 
ATOM     20  C   UNL     1      13.623   6.620  25.363  0.00  0.00    +0.000 A 
ATOM     21  C   UNL     1      13.264   4.453  26.352  0.00  0.00    +0.000 A 
ATOM     22  H   UNL     1      17.951   6.628  25.114  0.00  0.00    +0.000 HD
ATOM     23  H   UNL     1      17.951   6.628  25.114  0.00  0.00    +0.000 HD
ENDBRANCH  15  19
BRANCH  14  24
ATOM     24  O   UNL     1      12.577   4.742  22.544  0.00  0.00    +0.000 OA
ATOM     25  C   UNL     1      12.479   3.418  22.044  0.00  0.00    +0.000 C 
ENDBRANCH  14  24
ENDBRANCH  12  15
ENDBRANCH   5  11
BRANCH   7  27
ATOM     26  OXT UNL     1      17.111  10.691  17.614  0.00  0.00    +0.000 OA
ATOM     27  C   UNL     1      17.978  10.618  18.462  0.00  0.00    +0.000 C 
BRANCH  27  28
ATOM     28  O   UNL     1      18.677  11.648  18.979  0.00  0.00    +0.000 OA
ATOM     29  H   UNL     1      21.379   9.334  20.802  0.00  0.00    +0.000 HD
ENDBRANCH  27  28
ENDBRANCH   7  27
BRANCH   8  30
ATOM     30  C   UNL     1      20.237   9.026  17.338  0.00  0.00    +0.000 C 
BRANCH  30  31
ATOM     31  S   UNL     1      21.737   8.038  17.236  0.00  0.00    +0.000 S 
BRANCH  31  35
ATOM     32  S   UNL     1      21.997   5.089  16.359  0.00  0.00    +0.000 S 
ATOM     33  N   UNL     1      20.062   6.603  15.629  0.00  0.00    +0.000 NA
ATOM     34  N   UNL     1      19.823   5.376  15.035  0.00  0.00    +0.000 NA
ATOM     35  C   UNL     1      21.164   6.589  16.348  0.00  0.00    +0.000 A 
ATOM     36  C   UNL     1      20.756   4.498  15.334  0.00  0.00    +0.000 A 
BRANCH  36  37
ATOM     37  C   UNL     1      20.793   3.099  14.862  0.00  0.00    +0.000 C 
BRANCH  37  39
ATOM     38  O   UNL     1      19.127   1.670  12.961  0.00  0.00    +0.000 OA
ATOM     39  N   UNL     1      20.985   2.993  13.432  0.00  0.00    +0.000 N 
ATOM     40  C   UNL     1      20.130   2.284  12.606  0.00  0.00    +0.000 C 
ATOM     41  C   UNL     1      20.546   2.356  11.160  0.00  0.00    +0.000 C 
ATOM     42  H   UNL     1      17.656   3.556  11.805  0.00  0.00    +0.000 HD
ENDBRANCH  37  39
ENDBRANCH  36  37
ENDBRANCH  31  35
ENDBRANCH  30  31
ENDBRANCH   8  30
TORSDOF 11
ENDMDL
MODEL 12
REMARK minimizedAffinity -7.43750715
REMARK minimizedRMSD -1
REMARK  Name = 88339242
REMARK  13 active torsions:
REMARK  status: ('A' for Active; 'I' for Inactive)
REMARK    1  A    between atoms: S_2  and  C_25
REMARK    2  A    between atoms: S_2  and  C_30
REMARK    3  A    between atoms: O_6  and  C_26
REMARK    4  A    between atoms: O_9  and  N_13
REMARK    5  A    between atoms: O_9  and  C_35
REMARK    6  A    between atoms: N_12  and  CA_20
REMARK    7  A    between atoms: N_17  and  C_34
REMARK    8  A    between atoms: CA_22  and  C_26
REMARK    9  A    between atoms: C_23  and  C_25
REMARK   10  A    between atoms: C_27  and  C_28
REMARK   11  A    between atoms: C_28  and  C_29
REMARK   12  A    between atoms: C_32  and  C_34
REMARK   13  A    between atoms: C_36  and  C_37
REMARK                            x       y       z     vdW  Elec       q    Type
REMARK                         _______ _______ _______ _____ _____    ______ ____
ROOT
ATOM      1  S   UNL     1      16.711   5.290  23.860  0.00  0.00    +0.000 S 
ATOM      2  O   UNL     1      12.910   7.970  23.629  0.00  0.00    +0.000 OA
ATOM      3  N   UNL     1      14.981   7.079  22.936  0.00  0.00    +0.000 N 
ATOM      4  C   UNL     1      15.167   5.640  22.982  0.00  0.00    +0.000 C 
ATOM      5  CA  UNL     1      13.874   5.597  23.835  0.00  0.00    +0.000 C 
ATOM      6  C   UNL     1      13.736   7.103  23.462  0.00  0.00    +0.000 C 
ATOM      7  CA  UNL     1      15.911   7.945  22.457  0.00  0.00    +0.000 C 
ATOM      8  C   UNL     1      17.196   7.566  22.261  0.00  0.00    +0.000 C 
ATOM      9  C   UNL     1      17.734   6.190  22.645  0.00  0.00    +0.000 C 
ENDROOT
BRANCH   5  11
ATOM     10  O   UNL     1      12.237   3.601  25.255  0.00  0.00    +0.000 OA
ATOM     11  N   UNL     1      12.823   4.747  23.292  0.00  0.00    +0.000 N 
ATOM     12  C   UNL     1      12.116   3.837  24.064  0.00  0.00    +0.000 C 
ATOM     13  H   UNL     1      14.531   4.451  21.664  0.00  0.00    +0.000 HD
BRANCH  12  15
ATOM     14  N   UNL     1      11.433   2.299  22.305  0.00  0.00    +0.000 NA
ATOM     15  C   UNL     1      11.078   3.075  23.283  0.00  0.00    +0.000 C 
BRANCH  15  19
ATOM     16  S   UNL     1       7.362   2.942  24.712  0.00  0.00    +0.000 S 
ATOM     17  N   UNL     1       8.875   4.211  23.046  0.00  0.00    +0.000 NA
ATOM     18  N   UNL     1       6.639   4.970  23.151  0.00  0.00    +0.000 N 
ATOM     19  C   UNL     1       9.644   3.234  23.649  0.00  0.00    +0.000 A 
ATOM     20  C   UNL     1       8.999   2.448  24.579  0.00  0.00    +0.000 A 
ATOM     21  C   UNL     1       7.655   4.149  23.529  0.00  0.00    +0.000 A 
ATOM     22  H   UNL     1       9.755  -0.125  21.173  0.00  0.00    +0.000 HD
ATOM     23  H   UNL     1       9.755  -0.125  21.173  0.00  0.00    +0.000 HD
ENDBRANCH  15  19
BRANCH  14  24
ATOM     24  O   UNL     1      10.327   1.686  21.700  0.00  0.00    +0.000 OA
ATOM     25  C   UNL     1      10.485   0.280  21.814  0.00  0.00    +0.000 C 
ENDBRANCH  14  24
ENDBRANCH  12  15
ENDBRANCH   5  11
BRANCH   7  27
ATOM     26  OXT UNL     1      15.432  10.188  23.080  0.00  0.00    +0.000 OA
ATOM     27  C   UNL     1      15.474   9.329  22.222  0.00  0.00    +0.000 C 
BRANCH  27  28
ATOM     28  O   UNL     1      15.136   9.478  20.927  0.00  0.00    +0.000 OA
ATOM     29  H   UNL     1      15.176   5.564  20.118  0.00  0.00    +0.000 HD
ENDBRANCH  27  28
ENDBRANCH   7  27
BRANCH   8  30
ATOM     30  C   UNL     1      18.266   8.444  21.656  0.00  0.00    +0.000 C 
BRANCH  30  31
ATOM     31  S   UNL     1      18.338   8.160  19.880  0.00  0.00    +0.000 S 
BRANCH  31  35
ATOM     32  S   UNL     1      20.734   8.871  18.068  0.00  0.00    +0.000 S 
ATOM     33  N   UNL     1      21.000   7.966  20.452  0.00  0.00    +0.000 NA
ATOM     34  N   UNL     1      22.285   8.156  19.977  0.00  0.00    +0.000 NA
ATOM     35  C   UNL     1      20.096   8.301  19.555  0.00  0.00    +0.000 A 
ATOM     36  C   UNL     1      22.289   8.624  18.747  0.00  0.00    +0.000 A 
BRANCH  36  37
ATOM     37  C   UNL     1      23.497   8.936  17.957  0.00  0.00    +0.000 C 
BRANCH  37  39
ATOM     38  O   UNL     1      23.006   7.941  15.274  0.00  0.00    +0.000 OA
ATOM     39  N   UNL     1      24.078   7.767  17.333  0.00  0.00    +0.000 N 
ATOM     40  C   UNL     1      23.779   7.372  16.041  0.00  0.00    +0.000 C 
ATOM     41  C   UNL     1      24.540   6.139  15.632  0.00  0.00    +0.000 C 
ATOM     42  H   UNL     1      25.111   8.738  13.865  0.00  0.00    +0.000 HD
ENDBRANCH  37  39
ENDBRANCH  36  37
ENDBRANCH  31  35
ENDBRANCH  30  31
ENDBRANCH   8  30
TORSDOF 11
ENDMDL
MODEL 13
REMARK minimizedAffinity -7.39611769
REMARK minimizedRMSD -1
REMARK  Name = 88339242
REMARK  13 active torsions:
REMARK  status: ('A' for Active; 'I' for Inactive)
REMARK    1  A    between atoms: S_2  and  C_25
REMARK    2  A    between atoms: S_2  and  C_30
REMARK    3  A    between atoms: O_6  and  C_26
REMARK    4  A    between atoms: O_9  and  N_13
REMARK    5  A    between atoms: O_9  and  C_35
REMARK    6  A    between atoms: N_12  and  CA_20
REMARK    7  A    between atoms: N_17  and  C_34
REMARK    8  A    between atoms: CA_22  and  C_26
REMARK    9  A    between atoms: C_23  and  C_25
REMARK   10  A    between atoms: C_27  and  C_28
REMARK   11  A    between atoms: C_28  and  C_29
REMARK   12  A    between atoms: C_32  and  C_34
REMARK   13  A    between atoms: C_36  and  C_37
REMARK                            x       y       z     vdW  Elec       q    Type
REMARK                         _______ _______ _______ _____ _____    ______ ____
ROOT
ATOM      1  S   UNL     1      18.595   6.129  18.869  0.00  0.00    +0.000 S 
ATOM      2  O   UNL     1      18.832  10.752  18.363  0.00  0.00    +0.000 OA
ATOM      3  N   UNL     1      18.346   8.710  19.439  0.00  0.00    +0.000 N 
ATOM      4  C   UNL     1      19.357   7.668  19.439  0.00  0.00    +0.000 C 
ATOM      5  CA  UNL     1      20.085   8.508  18.360  0.00  0.00    +0.000 C 
ATOM      6  C   UNL     1      19.027   9.604  18.689  0.00  0.00    +0.000 C 
ATOM      7  CA  UNL     1      17.151   8.602  20.076  0.00  0.00    +0.000 C 
ATOM      8  C   UNL     1      16.687   7.408  20.512  0.00  0.00    +0.000 C 
ATOM      9  C   UNL     1      17.398   6.083  20.246  0.00  0.00    +0.000 C 
ENDROOT
BRANCH   5  11
ATOM     10  O   UNL     1      22.542   8.015  16.810  0.00  0.00    +0.000 OA
ATOM     11  N   UNL     1      21.453   8.874  18.704  0.00  0.00    +0.000 N 
ATOM     12  C   UNL     1      22.538   8.586  17.888  0.00  0.00    +0.000 C 
ATOM     13  H   UNL     1      20.712   7.916  20.750  0.00  0.00    +0.000 HD
BRANCH  12  15
ATOM     14  N   UNL     1      23.870   9.848  19.489  0.00  0.00    +0.000 NA
ATOM     15  C   UNL     1      23.849   9.066  18.452  0.00  0.00    +0.000 C 
BRANCH  15  19
ATOM     16  S   UNL     1      27.195   7.342  17.149  0.00  0.00    +0.000 S 
ATOM     17  N   UNL     1      25.682   9.408  16.803  0.00  0.00    +0.000 NA
ATOM     18  N   UNL     1      27.593   9.318  15.415  0.00  0.00    +0.000 N 
ATOM     19  C   UNL     1      25.113   8.635  17.797  0.00  0.00    +0.000 A 
ATOM     20  C   UNL     1      25.789   7.478  18.121  0.00  0.00    +0.000 A 
ATOM     21  C   UNL     1      26.784   8.824  16.389  0.00  0.00    +0.000 A 
ATOM     22  H   UNL     1      26.285  10.129  21.515  0.00  0.00    +0.000 HD
ATOM     23  H   UNL     1      26.285  10.129  21.515  0.00  0.00    +0.000 HD
ENDBRANCH  15  19
BRANCH  14  24
ATOM     24  O   UNL     1      25.178  10.189  19.857  0.00  0.00    +0.000 OA
ATOM     25  C   UNL     1      25.268  10.131  21.273  0.00  0.00    +0.000 C 
ENDBRANCH  14  24
ENDBRANCH  12  15
ENDBRANCH   5  11
BRANCH   7  27
ATOM     26  OXT UNL     1      15.640  10.284  19.343  0.00  0.00    +0.000 OA
ATOM     27  C   UNL     1      16.356   9.831  20.214  0.00  0.00    +0.000 C 
BRANCH  27  28
ATOM     28  O   UNL     1      16.554  10.358  21.438  0.00  0.00    +0.000 OA
ATOM     29  H   UNL     1      19.661   8.000  22.318  0.00  0.00    +0.000 HD
ENDBRANCH  27  28
ENDBRANCH   7  27
BRANCH   8  30
ATOM     30  C   UNL     1      15.412   7.218  21.299  0.00  0.00    +0.000 C 
BRANCH  30  31
ATOM     31  S   UNL     1      15.807   7.064  23.048  0.00  0.00    +0.000 S 
BRANCH  31  35
ATOM     32  S   UNL     1      13.138   5.525  22.862  0.00  0.00    +0.000 S 
ATOM     33  N   UNL     1      14.985   4.930  24.537  0.00  0.00    +0.000 NA
ATOM     34  N   UNL     1      13.965   4.022  24.764  0.00  0.00    +0.000 NA
ATOM     35  C   UNL     1      14.682   5.769  23.569  0.00  0.00    +0.000 A 
ATOM     36  C   UNL     1      12.943   4.222  23.960  0.00  0.00    +0.000 A 
BRANCH  36  37
ATOM     37  C   UNL     1      11.700   3.426  23.947  0.00  0.00    +0.000 C 
BRANCH  37  39
ATOM     38  O   UNL     1       8.870   2.811  24.153  0.00  0.00    +0.000 OA
ATOM     39  N   UNL     1      10.603   4.106  23.293  0.00  0.00    +0.000 N 
ATOM     40  C   UNL     1       9.280   3.736  23.456  0.00  0.00    +0.000 C 
ATOM     41  C   UNL     1       8.341   4.625  22.685  0.00  0.00    +0.000 C 
ATOM     42  H   UNL     1       7.911   4.616  25.850  0.00  0.00    +0.000 HD
ENDBRANCH  37  39
ENDBRANCH  36  37
ENDBRANCH  31  35
ENDBRANCH  30  31
ENDBRANCH   8  30
TORSDOF 11
ENDMDL
MODEL 14
REMARK minimizedAffinity -7.24184179
REMARK minimizedRMSD -1
REMARK  Name = 88339242
REMARK  13 active torsions:
REMARK  status: ('A' for Active; 'I' for Inactive)
REMARK    1  A    between atoms: S_2  and  C_25
REMARK    2  A    between atoms: S_2  and  C_30
REMARK    3  A    between atoms: O_6  and  C_26
REMARK    4  A    between atoms: O_9  and  N_13
REMARK    5  A    between atoms: O_9  and  C_35
REMARK    6  A    between atoms: N_12  and  CA_20
REMARK    7  A    between atoms: N_17  and  C_34
REMARK    8  A    between atoms: CA_22  and  C_26
REMARK    9  A    between atoms: C_23  and  C_25
REMARK   10  A    between atoms: C_27  and  C_28
REMARK   11  A    between atoms: C_28  and  C_29
REMARK   12  A    between atoms: C_32  and  C_34
REMARK   13  A    between atoms: C_36  and  C_37
REMARK                            x       y       z     vdW  Elec       q    Type
REMARK                         _______ _______ _______ _____ _____    ______ ____
ROOT
ATOM      1  S   UNL     1      18.853   6.637  20.322  0.00  0.00    +0.000 S 
ATOM      2  O   UNL     1      19.045   9.863  16.970  0.00  0.00    +0.000 OA
ATOM      3  N   UNL     1      18.776   9.021  19.156  0.00  0.00    +0.000 N 
ATOM      4  C   UNL     1      19.746   8.062  19.655  0.00  0.00    +0.000 C 
ATOM      5  CA  UNL     1      20.231   7.937  18.189  0.00  0.00    +0.000 C 
ATOM      6  C   UNL     1      19.289   9.147  17.913  0.00  0.00    +0.000 C 
ATOM      7  CA  UNL     1      17.750   9.511  19.898  0.00  0.00    +0.000 C 
ATOM      8  C   UNL     1      17.374   8.926  21.060  0.00  0.00    +0.000 C 
ATOM      9  C   UNL     1      17.988   7.630  21.585  0.00  0.00    +0.000 C 
ENDROOT
BRANCH   5  11
ATOM     10  O   UNL     1      21.939   7.209  15.900  0.00  0.00    +0.000 OA
ATOM     11  N   UNL     1      21.647   8.224  17.997  0.00  0.00    +0.000 N 
ATOM     12  C   UNL     1      22.350   7.826  16.869  0.00  0.00    +0.000 C 
ATOM     13  H   UNL     1      21.648   7.411  20.232  0.00  0.00    +0.000 HD
BRANCH  12  15
ATOM     14  N   UNL     1      24.419   8.520  15.789  0.00  0.00    +0.000 NA
ATOM     15  C   UNL     1      23.798   8.241  16.895  0.00  0.00    +0.000 C 
BRANCH  15  19
ATOM     16  S   UNL     1      25.560   9.164  20.346  0.00  0.00    +0.000 S 
ATOM     17  N   UNL     1      24.980   7.171  18.807  0.00  0.00    +0.000 NA
ATOM     18  N   UNL     1      26.138   6.606  20.788  0.00  0.00    +0.000 N 
ATOM     19  C   UNL     1      24.500   8.318  18.204  0.00  0.00    +0.000 A 
ATOM     20  C   UNL     1      24.720   9.495  18.888  0.00  0.00    +0.000 A 
ATOM     21  C   UNL     1      25.558   7.497  19.941  0.00  0.00    +0.000 A 
ATOM     22  H   UNL     1      27.297   9.649  15.405  0.00  0.00    +0.000 HD
ATOM     23  H   UNL     1      27.297   9.649  15.405  0.00  0.00    +0.000 HD
ENDBRANCH  15  19
BRANCH  14  24
ATOM     24  O   UNL     1      25.755   8.877  16.018  0.00  0.00    +0.000 OA
ATOM     25  C   UNL     1      26.023  10.070  15.298  0.00  0.00    +0.000 C 
ENDBRANCH  14  24
ENDBRANCH  12  15
ENDBRANCH   5  11
BRANCH   7  27
ATOM     26  OXT UNL     1      15.852  10.649  19.031  0.00  0.00    +0.000 OA
ATOM     27  C   UNL     1      17.024  10.666  19.351  0.00  0.00    +0.000 C 
BRANCH  27  28
ATOM     28  O   UNL     1      17.859  11.720  19.266  0.00  0.00    +0.000 OA
ATOM     29  H   UNL     1      21.167   9.582  19.950  0.00  0.00    +0.000 HD
ENDBRANCH  27  28
ENDBRANCH   7  27
BRANCH   8  30
ATOM     30  C   UNL     1      16.301   9.457  21.981  0.00  0.00    +0.000 C 
BRANCH  30  31
ATOM     31  S   UNL     1      14.809   8.470  21.792  0.00  0.00    +0.000 S 
BRANCH  31  35
ATOM     32  S   UNL     1      15.466   5.803  23.200  0.00  0.00    +0.000 S 
ATOM     33  N   UNL     1      14.473   7.826  24.422  0.00  0.00    +0.000 NA
ATOM     34  N   UNL     1      14.619   6.841  25.384  0.00  0.00    +0.000 NA
ATOM     35  C   UNL     1      14.879   7.414  23.239  0.00  0.00    +0.000 A 
ATOM     36  C   UNL     1      15.125   5.736  24.880  0.00  0.00    +0.000 A 
BRANCH  36  37
ATOM     37  C   UNL     1      15.406   4.503  25.641  0.00  0.00    +0.000 C 
BRANCH  37  39
ATOM     38  O   UNL     1      18.157   3.973  24.876  0.00  0.00    +0.000 OA
ATOM     39  N   UNL     1      16.586   4.611  26.472  0.00  0.00    +0.000 N 
ATOM     40  C   UNL     1      17.861   4.334  26.013  0.00  0.00    +0.000 C 
ATOM     41  C   UNL     1      18.907   4.550  27.074  0.00  0.00    +0.000 C 
ATOM     42  H   UNL     1      19.216   6.375  24.470  0.00  0.00    +0.000 HD
ENDBRANCH  37  39
ENDBRANCH  36  37
ENDBRANCH  31  35
ENDBRANCH  30  31
ENDBRANCH   8  30
TORSDOF 11
ENDMDL
MODEL 15
REMARK minimizedAffinity -7.23675585
REMARK minimizedRMSD -1
REMARK  Name = 88339242
REMARK  13 active torsions:
REMARK  status: ('A' for Active; 'I' for Inactive)
REMARK    1  A    between atoms: S_2  and  C_25
REMARK    2  A    between atoms: S_2  and  C_30
REMARK    3  A    between atoms: O_6  and  C_26
REMARK    4  A    between atoms: O_9  and  N_13
REMARK    5  A    between atoms: O_9  and  C_35
REMARK    6  A    between atoms: N_12  and  CA_20
REMARK    7  A    between atoms: N_17  and  C_34
REMARK    8  A    between atoms: CA_22  and  C_26
REMARK    9  A    between atoms: C_23  and  C_25
REMARK   10  A    between atoms: C_27  and  C_28
REMARK   11  A    between atoms: C_28  and  C_29
REMARK   12  A    between atoms: C_32  and  C_34
REMARK   13  A    between atoms: C_36  and  C_37
REMARK                            x       y       z     vdW  Elec       q    Type
REMARK                         _______ _______ _______ _____ _____    ______ ____
ROOT
ATOM      1  S   UNL     1      14.699   4.349  25.523  0.00  0.00    +0.000 S 
ATOM      2  O   UNL     1      19.275   3.692  24.968  0.00  0.00    +0.000 OA
ATOM      3  N   UNL     1      17.209   4.817  24.797  0.00  0.00    +0.000 N 
ATOM      4  C   UNL     1      16.363   4.897  25.975  0.00  0.00    +0.000 C 
ATOM      5  CA  UNL     1      17.290   3.821  26.594  0.00  0.00    +0.000 C 
ATOM      6  C   UNL     1      18.189   4.066  25.346  0.00  0.00    +0.000 C 
ATOM      7  CA  UNL     1      16.909   5.406  23.611  0.00  0.00    +0.000 C 
ATOM      8  C   UNL     1      15.663   5.863  23.343  0.00  0.00    +0.000 C 
ATOM      9  C   UNL     1      14.478   5.674  24.287  0.00  0.00    +0.000 C 
ENDROOT
BRANCH   5  11
ATOM     10  O   UNL     1      18.150   2.077  28.809  0.00  0.00    +0.000 OA
ATOM     11  N   UNL     1      17.901   4.210  27.858  0.00  0.00    +0.000 N 
ATOM     12  C   UNL     1      18.266   3.292  28.833  0.00  0.00    +0.000 C 
ATOM     13  H   UNL     1      16.097   5.754  27.734  0.00  0.00    +0.000 HD
BRANCH  12  15
ATOM     14  N   UNL     1      18.296   3.840  31.205  0.00  0.00    +0.000 NA
ATOM     15  C   UNL     1      18.882   3.930  30.049  0.00  0.00    +0.000 C 
BRANCH  15  19
ATOM     16  S   UNL     1      22.626   5.251  29.724  0.00  0.00    +0.000 S 
ATOM     17  N   UNL     1      20.165   6.040  29.735  0.00  0.00    +0.000 NA
ATOM     18  N   UNL     1      21.768   7.755  29.459  0.00  0.00    +0.000 N 
ATOM     19  C   UNL     1      20.165   4.669  29.901  0.00  0.00    +0.000 A 
ATOM     20  C   UNL     1      21.404   4.064  29.921  0.00  0.00    +0.000 A 
ATOM     21  C   UNL     1      21.408   6.456  29.631  0.00  0.00    +0.000 A 
ATOM     22  H   UNL     1      19.892   3.797  33.975  0.00  0.00    +0.000 HD
ATOM     23  H   UNL     1      19.892   3.797  33.975  0.00  0.00    +0.000 HD
ENDBRANCH  15  19
BRANCH  14  24
ATOM     24  O   UNL     1      19.018   4.501  32.208  0.00  0.00    +0.000 OA
ATOM     25  C   UNL     1      18.165   5.466  32.803  0.00  0.00    +0.000 C 
ENDBRANCH  14  24
ENDBRANCH  12  15
ENDBRANCH   5  11
BRANCH   7  27
ATOM     26  OXT UNL     1      18.782   6.375  22.515  0.00  0.00    +0.000 OA
ATOM     27  C   UNL     1      17.980   5.466  22.606  0.00  0.00    +0.000 C 
BRANCH  27  28
ATOM     28  O   UNL     1      17.923   4.372  21.823  0.00  0.00    +0.000 OA
ATOM     29  H   UNL     1      14.338   3.200  23.150  0.00  0.00    +0.000 HD
ENDBRANCH  27  28
ENDBRANCH   7  27
BRANCH   8  30
ATOM     30  C   UNL     1      15.271   6.602  22.085  0.00  0.00    +0.000 C 
BRANCH  30  31
ATOM     31  S   UNL     1      14.920   8.320  22.486  0.00  0.00    +0.000 S 
BRANCH  31  35
ATOM     32  S   UNL     1      17.471   9.527  21.234  0.00  0.00    +0.000 S 
ATOM     33  N   UNL     1      15.173   9.622  20.101  0.00  0.00    +0.000 NA
ATOM     34  N   UNL     1      16.044  10.263  19.238  0.00  0.00    +0.000 NA
ATOM     35  C   UNL     1      15.790   9.189  21.181  0.00  0.00    +0.000 A 
ATOM     36  C   UNL     1      17.273  10.284  19.708  0.00  0.00    +0.000 A 
BRANCH  36  37
ATOM     37  C   UNL     1      18.436  10.890  19.029  0.00  0.00    +0.000 C 
BRANCH  37  39
ATOM     38  O   UNL     1      19.052  10.032  16.325  0.00  0.00    +0.000 OA
ATOM     39  N   UNL     1      19.421   9.912  18.620  0.00  0.00    +0.000 N 
ATOM     40  C   UNL     1      19.642   9.569  17.298  0.00  0.00    +0.000 C 
ATOM     41  C   UNL     1      20.737   8.547  17.151  0.00  0.00    +0.000 C 
ATOM     42  H   UNL     1      21.278  11.339  15.695  0.00  0.00    +0.000 HD
ENDBRANCH  37  39
ENDBRANCH  36  37
ENDBRANCH  31  35
ENDBRANCH  30  31
ENDBRANCH   8  30
TORSDOF 11
ENDMDL
MODEL 16
REMARK minimizedAffinity -7.03952217
REMARK minimizedRMSD -1
REMARK  Name = 88339242
REMARK  13 active torsions:
REMARK  status: ('A' for Active; 'I' for Inactive)
REMARK    1  A    between atoms: S_2  and  C_25
REMARK    2  A    between atoms: S_2  and  C_30
REMARK    3  A    between atoms: O_6  and  C_26
REMARK    4  A    between atoms: O_9  and  N_13
REMARK    5  A    between atoms: O_9  and  C_35
REMARK    6  A    between atoms: N_12  and  CA_20
REMARK    7  A    between atoms: N_17  and  C_34
REMARK    8  A    between atoms: CA_22  and  C_26
REMARK    9  A    between atoms: C_23  and  C_25
REMARK   10  A    between atoms: C_27  and  C_28
REMARK   11  A    between atoms: C_28  and  C_29
REMARK   12  A    between atoms: C_32  and  C_34
REMARK   13  A    between atoms: C_36  and  C_37
REMARK                            x       y       z     vdW  Elec       q    Type
REMARK                         _______ _______ _______ _____ _____    ______ ____
ROOT
ATOM      1  S   UNL     1      22.034   8.554  20.473  0.00  0.00    +0.000 S 
ATOM      2  O   UNL     1      18.176   9.365  17.995  0.00  0.00    +0.000 OA
ATOM      3  N   UNL     1      20.100   8.192  18.691  0.00  0.00    +0.000 N 
ATOM      4  C   UNL     1      20.338   8.033  20.114  0.00  0.00    +0.000 C 
ATOM      5  CA  UNL     1      19.239   9.105  20.320  0.00  0.00    +0.000 C 
ATOM      6  C   UNL     1      18.981   8.944  18.792  0.00  0.00    +0.000 C 
ATOM      7  CA  UNL     1      20.890   7.650  17.728  0.00  0.00    +0.000 C 
ATOM      8  C   UNL     1      22.124   7.171  18.013  0.00  0.00    +0.000 C 
ATOM      9  C   UNL     1      22.771   7.282  19.391  0.00  0.00    +0.000 C 
ENDROOT
BRANCH   5  11
ATOM     10  O   UNL     1      16.722  10.532  20.878  0.00  0.00    +0.000 OA
ATOM     11  N   UNL     1      18.130   8.675  21.162  0.00  0.00    +0.000 N 
ATOM     12  C   UNL     1      16.988   9.439  21.351  0.00  0.00    +0.000 C 
ATOM     13  H   UNL     1      19.982   8.219  22.583  0.00  0.00    +0.000 HD
BRANCH  12  15
ATOM     14  N   UNL     1      15.168   9.512  22.968  0.00  0.00    +0.000 NA
ATOM     15  C   UNL     1      15.980   8.786  22.260  0.00  0.00    +0.000 C 
BRANCH  15  19
ATOM     16  S   UNL     1      16.272   4.894  23.059  0.00  0.00    +0.000 S 
ATOM     17  N   UNL     1      15.260   6.573  21.375  0.00  0.00    +0.000 NA
ATOM     18  N   UNL     1      14.820   4.297  20.912  0.00  0.00    +0.000 N 
ATOM     19  C   UNL     1      15.937   7.300  22.335  0.00  0.00    +0.000 A 
ATOM     20  C   UNL     1      16.549   6.565  23.327  0.00  0.00    +0.000 A 
ATOM     21  C   UNL     1      15.370   5.294  21.656  0.00  0.00    +0.000 A 
ATOM     22  H   UNL     1      19.758   8.195  20.912  0.00  0.00    +0.000 HD
ATOM     23  H   UNL     1      19.758   8.195  20.912  0.00  0.00    +0.000 HD
ENDBRANCH  15  19
BRANCH  14  24
ATOM     24  O   UNL     1      14.314   8.723  23.752  0.00  0.00    +0.000 OA
ATOM     25  C   UNL     1      13.016   8.779  23.181  0.00  0.00    +0.000 C 
ENDBRANCH  14  24
ENDBRANCH  12  15
ENDBRANCH   5  11
BRANCH   7  27
ATOM     26  OXT UNL     1      20.514   8.592  15.579  0.00  0.00    +0.000 OA
ATOM     27  C   UNL     1      20.371   7.667  16.353  0.00  0.00    +0.000 C 
BRANCH  27  28
ATOM     28  O   UNL     1      19.726   6.511  16.104  0.00  0.00    +0.000 OA
ATOM     29  H   UNL     1      19.677   5.326  19.921  0.00  0.00    +0.000 HD
ENDBRANCH  27  28
ENDBRANCH   7  27
BRANCH   8  30
ATOM     30  C   UNL     1      23.027   6.481  17.018  0.00  0.00    +0.000 C 
BRANCH  30  31
ATOM     31  S   UNL     1      23.991   7.715  16.131  0.00  0.00    +0.000 S 
BRANCH  31  35
ATOM     32  S   UNL     1      25.361   9.470  18.270  0.00  0.00    +0.000 S 
ATOM     33  N   UNL     1      26.325   7.236  17.463  0.00  0.00    +0.000 NA
ATOM     34  N   UNL     1      27.217   7.709  18.408  0.00  0.00    +0.000 NA
ATOM     35  C   UNL     1      25.311   8.058  17.296  0.00  0.00    +0.000 A 
ATOM     36  C   UNL     1      26.834   8.865  18.907  0.00  0.00    +0.000 A 
BRANCH  36  37
ATOM     37  C   UNL     1      27.563   9.634  19.935  0.00  0.00    +0.000 C 
BRANCH  37  39
ATOM     38  O   UNL     1      25.779  11.434  21.352  0.00  0.00    +0.000 OA
ATOM     39  N   UNL     1      27.013   9.461  21.262  0.00  0.00    +0.000 N 
ATOM     40  C   UNL     1      26.166  10.381  21.855  0.00  0.00    +0.000 C 
ATOM     41  C   UNL     1      25.721   9.945  23.225  0.00  0.00    +0.000 C 
ATOM     42  H   UNL     1      23.373  10.337  21.094  0.00  0.00    +0.000 HD
ENDBRANCH  37  39
ENDBRANCH  36  37
ENDBRANCH  31  35
ENDBRANCH  30  31
ENDBRANCH   8  30
TORSDOF 11
ENDMDL
MODEL 17
REMARK minimizedAffinity -7.02885008
REMARK minimizedRMSD -1
REMARK  Name = 88339242
REMARK  13 active torsions:
REMARK  status: ('A' for Active; 'I' for Inactive)
REMARK    1  A    between atoms: S_2  and  C_25
REMARK    2  A    between atoms: S_2  and  C_30
REMARK    3  A    between atoms: O_6  and  C_26
REMARK    4  A    between atoms: O_9  and  N_13
REMARK    5  A    between atoms: O_9  and  C_35
REMARK    6  A    between atoms: N_12  and  CA_20
REMARK    7  A    between atoms: N_17  and  C_34
REMARK    8  A    between atoms: CA_22  and  C_26
REMARK    9  A    between atoms: C_23  and  C_25
REMARK   10  A    between atoms: C_27  and  C_28
REMARK   11  A    between atoms: C_28  and  C_29
REMARK   12  A    between atoms: C_32  and  C_34
REMARK   13  A    between atoms: C_36  and  C_37
REMARK                            x       y       z     vdW  Elec       q    Type
REMARK                         _______ _______ _______ _____ _____    ______ ____
ROOT
ATOM      1  S   UNL     1      17.581   5.980  22.769  0.00  0.00    +0.000 S 
ATOM      2  O   UNL     1      14.074   7.361  25.503  0.00  0.00    +0.000 OA
ATOM      3  N   UNL     1      15.269   7.066  23.491  0.00  0.00    +0.000 N 
ATOM      4  C   UNL     1      15.839   5.761  23.209  0.00  0.00    +0.000 C 
ATOM      5  CA  UNL     1      15.549   5.420  24.692  0.00  0.00    +0.000 C 
ATOM      6  C   UNL     1      14.771   6.769  24.712  0.00  0.00    +0.000 C 
ATOM      7  CA  UNL     1      15.330   8.118  22.634  0.00  0.00    +0.000 C 
ATOM      8  C   UNL     1      16.179   8.123  21.580  0.00  0.00    +0.000 C 
ATOM      9  C   UNL     1      17.199   7.018  21.317  0.00  0.00    +0.000 C 
ENDROOT
BRANCH   5  11
ATOM     10  O   UNL     1      15.899   3.241  26.645  0.00  0.00    +0.000 OA
ATOM     11  N   UNL     1      14.711   4.243  24.885  0.00  0.00    +0.000 N 
ATOM     12  C   UNL     1      14.979   3.277  25.844  0.00  0.00    +0.000 C 
ATOM     13  H   UNL     1      14.961   4.238  22.520  0.00  0.00    +0.000 HD
BRANCH  12  15
ATOM     14  N   UNL     1      13.262   1.902  24.800  0.00  0.00    +0.000 NA
ATOM     15  C   UNL     1      13.971   2.158  25.858  0.00  0.00    +0.000 C 
BRANCH  15  19
ATOM     16  S   UNL     1      13.067   0.561  29.393  0.00  0.00    +0.000 S 
ATOM     17  N   UNL     1      14.477   0.166  27.263  0.00  0.00    +0.000 NA
ATOM     18  N   UNL     1      14.657  -1.517  28.913  0.00  0.00    +0.000 N 
ATOM     19  C   UNL     1      13.801   1.360  27.102  0.00  0.00    +0.000 A 
ATOM     20  C   UNL     1      12.989   1.740  28.150  0.00  0.00    +0.000 A 
ATOM     21  C   UNL     1      14.166  -0.343  28.434  0.00  0.00    +0.000 A 
ATOM     22  H   UNL     1      16.328   4.504  28.178  0.00  0.00    +0.000 HD
ATOM     23  H   UNL     1      16.328   4.504  28.178  0.00  0.00    +0.000 HD
ENDBRANCH  15  19
BRANCH  14  24
ATOM     24  O   UNL     1      12.380   0.834  25.012  0.00  0.00    +0.000 OA
ATOM     25  C   UNL     1      11.090   1.232  24.574  0.00  0.00    +0.000 C 
ENDBRANCH  14  24
ENDBRANCH  12  15
ENDBRANCH   5  11
BRANCH   7  27
ATOM     26  OXT UNL     1      13.268   9.286  22.825  0.00  0.00    +0.000 OA
ATOM     27  C   UNL     1      14.478   9.276  22.940  0.00  0.00    +0.000 C 
BRANCH  27  28
ATOM     28  O   UNL     1      15.247  10.300  23.357  0.00  0.00    +0.000 OA
ATOM     29  H   UNL     1      18.694   8.595  22.264  0.00  0.00    +0.000 HD
ENDBRANCH  27  28
ENDBRANCH   7  27
BRANCH   8  30
ATOM     30  C   UNL     1      16.247   9.215  20.539  0.00  0.00    +0.000 C 
BRANCH  30  31
ATOM     31  S   UNL     1      17.840  10.044  20.646  0.00  0.00    +0.000 S 
BRANCH  31  35
ATOM     32  S   UNL     1      19.865   8.658  18.773  0.00  0.00    +0.000 S 
ATOM     33  N   UNL     1      18.063  10.277  17.936  0.00  0.00    +0.000 NA
ATOM     34  N   UNL     1      18.759   9.876  16.809  0.00  0.00    +0.000 NA
ATOM     35  C   UNL     1      18.538   9.714  19.027  0.00  0.00    +0.000 A 
ATOM     36  C   UNL     1      19.725   9.033  17.105  0.00  0.00    +0.000 A 
BRANCH  36  37
ATOM     37  C   UNL     1      20.649   8.419  16.131  0.00  0.00    +0.000 C 
BRANCH  37  39
ATOM     38  O   UNL     1      23.309   8.292  14.974  0.00  0.00    +0.000 OA
ATOM     39  N   UNL     1      21.852   7.899  16.746  0.00  0.00    +0.000 N 
ATOM     40  C   UNL     1      23.080   7.882  16.109  0.00  0.00    +0.000 C 
ATOM     41  C   UNL     1      24.166   7.313  16.982  0.00  0.00    +0.000 C 
ATOM     42  H   UNL     1      24.612  10.338  16.058  0.00  0.00    +0.000 HD
ENDBRANCH  37  39
ENDBRANCH  36  37
ENDBRANCH  31  35
ENDBRANCH  30  31
ENDBRANCH   8  30
TORSDOF 11
ENDMDL
MODEL 18
REMARK minimizedAffinity -6.96970654
REMARK minimizedRMSD -1
REMARK  Name = 88339242
REMARK  13 active torsions:
REMARK  status: ('A' for Active; 'I' for Inactive)
REMARK    1  A    between atoms: S_2  and  C_25
REMARK    2  A    between atoms: S_2  and  C_30
REMARK    3  A    between atoms: O_6  and  C_26
REMARK    4  A    between atoms: O_9  and  N_13
REMARK    5  A    between atoms: O_9  and  C_35
REMARK    6  A    between atoms: N_12  and  CA_20
REMARK    7  A    between atoms: N_17  and  C_34
REMARK    8  A    between atoms: CA_22  and  C_26
REMARK    9  A    between atoms: C_23  and  C_25
REMARK   10  A    between atoms: C_27  and  C_28
REMARK   11  A    between atoms: C_28  and  C_29
REMARK   12  A    between atoms: C_32  and  C_34
REMARK   13  A    between atoms: C_36  and  C_37
REMARK                            x       y       z     vdW  Elec       q    Type
REMARK                         _______ _______ _______ _____ _____    ______ ____
ROOT
ATOM      1  S   UNL     1      22.263   9.148  20.189  0.00  0.00    +0.000 S 
ATOM      2  O   UNL     1      18.324   9.488  17.731  0.00  0.00    +0.000 OA
ATOM      3  N   UNL     1      20.352   8.528  18.454  0.00  0.00    +0.000 N 
ATOM      4  C   UNL     1      20.618   8.460  19.880  0.00  0.00    +0.000 C 
ATOM      5  CA  UNL     1      19.429   9.438  20.050  0.00  0.00    +0.000 C 
ATOM      6  C   UNL     1      19.172   9.180  18.535  0.00  0.00    +0.000 C 
ATOM      7  CA  UNL     1      21.179   8.013  17.507  0.00  0.00    +0.000 C 
ATOM      8  C   UNL     1      22.453   7.660  17.796  0.00  0.00    +0.000 C 
ATOM      9  C   UNL     1      23.102   7.896  19.159  0.00  0.00    +0.000 C 
ENDROOT
BRANCH   5  11
ATOM     10  O   UNL     1      16.772  10.621  20.523  0.00  0.00    +0.000 OA
ATOM     11  N   UNL     1      18.372   8.952  20.927  0.00  0.00    +0.000 N 
ATOM     12  C   UNL     1      17.153   9.600  21.070  0.00  0.00    +0.000 C 
ATOM     13  H   UNL     1      20.260   8.799  22.365  0.00  0.00    +0.000 HD
BRANCH  12  15
ATOM     14  N   UNL     1      15.429   9.602  22.789  0.00  0.00    +0.000 NA
ATOM     15  C   UNL     1      16.220   8.908  22.028  0.00  0.00    +0.000 C 
BRANCH  15  19
ATOM     16  S   UNL     1      16.685   5.021  22.767  0.00  0.00    +0.000 S 
ATOM     17  N   UNL     1      15.511   6.681  21.171  0.00  0.00    +0.000 NA
ATOM     18  N   UNL     1      15.111   4.396  20.717  0.00  0.00    +0.000 N 
ATOM     19  C   UNL     1      16.228   7.421  22.091  0.00  0.00    +0.000 A 
ATOM     20  C   UNL     1      16.928   6.698  23.033  0.00  0.00    +0.000 A 
ATOM     21  C   UNL     1      15.679   5.403  21.431  0.00  0.00    +0.000 A 
ATOM     22  H   UNL     1      19.916   8.446  20.425  0.00  0.00    +0.000 HD
ATOM     23  H   UNL     1      19.916   8.446  20.425  0.00  0.00    +0.000 HD
ENDBRANCH  15  19
BRANCH  14  24
ATOM     24  O   UNL     1      14.647   8.781  23.613  0.00  0.00    +0.000 OA
ATOM     25  C   UNL     1      13.307   8.838  23.148  0.00  0.00    +0.000 C 
ENDBRANCH  14  24
ENDBRANCH  12  15
ENDBRANCH   5  11
BRANCH   7  27
ATOM     26  OXT UNL     1      20.661   8.825  15.334  0.00  0.00    +0.000 OA
ATOM     27  C   UNL     1      20.647   7.916  16.140  0.00  0.00    +0.000 C 
BRANCH  27  28
ATOM     28  O   UNL     1      20.153   6.679  15.939  0.00  0.00    +0.000 OA
ATOM     29  H   UNL     1      20.300   5.628  19.793  0.00  0.00    +0.000 HD
ENDBRANCH  27  28
ENDBRANCH   7  27
BRANCH   8  30
ATOM     30  C   UNL     1      23.405   7.007  16.823  0.00  0.00    +0.000 C 
BRANCH  30  31
ATOM     31  S   UNL     1      23.909   5.403  17.465  0.00  0.00    +0.000 S 
BRANCH  31  35
ATOM     32  S   UNL     1      21.394   3.654  17.844  0.00  0.00    +0.000 S 
ATOM     33  N   UNL     1      22.528   4.004  15.572  0.00  0.00    +0.000 NA
ATOM     34  N   UNL     1      21.452   3.170  15.329  0.00  0.00    +0.000 NA
ATOM     35  C   UNL     1      22.612   4.333  16.844  0.00  0.00    +0.000 A 
ATOM     36  C   UNL     1      20.777   2.908  16.428  0.00  0.00    +0.000 A 
BRANCH  36  37
ATOM     37  C   UNL     1      19.577   2.053  16.509  0.00  0.00    +0.000 C 
BRANCH  37  39
ATOM     38  O   UNL     1      17.229   0.581  17.379  0.00  0.00    +0.000 OA
ATOM     39  N   UNL     1      18.901   2.150  17.785  0.00  0.00    +0.000 N 
ATOM     40  C   UNL     1      17.782   1.402  18.107  0.00  0.00    +0.000 C 
ATOM     41  C   UNL     1      17.295   1.679  19.504  0.00  0.00    +0.000 C 
ATOM     42  H   UNL     1      18.182  -1.339  18.949  0.00  0.00    +0.000 HD
ENDBRANCH  37  39
ENDBRANCH  36  37
ENDBRANCH  31  35
ENDBRANCH  30  31
ENDBRANCH   8  30
TORSDOF 11
ENDMDL
MODEL 19
REMARK minimizedAffinity -6.87475204
REMARK minimizedRMSD -1
REMARK  Name = 88339242
REMARK  13 active torsions:
REMARK  status: ('A' for Active; 'I' for Inactive)
REMARK    1  A    between atoms: S_2  and  C_25
REMARK    2  A    between atoms: S_2  and  C_30
REMARK    3  A    between atoms: O_6  and  C_26
REMARK    4  A    between atoms: O_9  and  N_13
REMARK    5  A    between atoms: O_9  and  C_35
REMARK    6  A    between atoms: N_12  and  CA_20
REMARK    7  A    between atoms: N_17  and  C_34
REMARK    8  A    between atoms: CA_22  and  C_26
REMARK    9  A    between atoms: C_23  and  C_25
REMARK   10  A    between atoms: C_27  and  C_28
REMARK   11  A    between atoms: C_28  and  C_29
REMARK   12  A    between atoms: C_32  and  C_34
REMARK   13  A    between atoms: C_36  and  C_37
REMARK                            x       y       z     vdW  Elec       q    Type
REMARK                         _______ _______ _______ _____ _____    ______ ____
ROOT
ATOM      1  S   UNL     1      22.307   9.225  20.131  0.00  0.00    +0.000 S 
ATOM      2  O   UNL     1      18.351   9.522  17.693  0.00  0.00    +0.000 OA
ATOM      3  N   UNL     1      20.408   8.599  18.384  0.00  0.00    +0.000 N 
ATOM      4  C   UNL     1      20.681   8.500  19.806  0.00  0.00    +0.000 C 
ATOM      5  CA  UNL     1      19.465   9.438  20.007  0.00  0.00    +0.000 C 
ATOM      6  C   UNL     1      19.210   9.216  18.486  0.00  0.00    +0.000 C 
ATOM      7  CA  UNL     1      21.246   8.135  17.421  0.00  0.00    +0.000 C 
ATOM      8  C   UNL     1      22.531   7.811  17.696  0.00  0.00    +0.000 C 
ATOM      9  C   UNL     1      23.177   8.027  19.063  0.00  0.00    +0.000 C 
ENDROOT
BRANCH   5  11
ATOM     10  O   UNL     1      16.815  10.584  20.597  0.00  0.00    +0.000 OA
ATOM     11  N   UNL     1      18.425   8.898  20.873  0.00  0.00    +0.000 N 
ATOM     12  C   UNL     1      17.208   9.532  21.076  0.00  0.00    +0.000 C 
ATOM     13  H   UNL     1      20.340   8.665  22.264  0.00  0.00    +0.000 HD
BRANCH  12  15
ATOM     14  N   UNL     1      15.453   9.425  22.760  0.00  0.00    +0.000 NA
ATOM     15  C   UNL     1      16.294   8.782  22.008  0.00  0.00    +0.000 C 
BRANCH  15  19
ATOM     16  S   UNL     1      16.946   4.917  22.719  0.00  0.00    +0.000 S 
ATOM     17  N   UNL     1      15.723   6.530  21.112  0.00  0.00    +0.000 NA
ATOM     18  N   UNL     1      15.455   4.233  20.625  0.00  0.00    +0.000 N 
ATOM     19  C   UNL     1      16.379   7.297  22.056  0.00  0.00    +0.000 A 
ATOM     20  C   UNL     1      17.094   6.601  23.007  0.00  0.00    +0.000 A 
ATOM     21  C   UNL     1      15.952   5.261  21.363  0.00  0.00    +0.000 A 
ATOM     22  H   UNL     1      20.045   8.533  20.487  0.00  0.00    +0.000 HD
ATOM     23  H   UNL     1      20.045   8.533  20.487  0.00  0.00    +0.000 HD
ENDBRANCH  15  19
BRANCH  14  24
ATOM     24  O   UNL     1      14.699   8.555  23.559  0.00  0.00    +0.000 OA
ATOM     25  C   UNL     1      13.333   8.699  23.201  0.00  0.00    +0.000 C 
ENDBRANCH  14  24
ENDBRANCH  12  15
ENDBRANCH   5  11
BRANCH   7  27
ATOM     26  OXT UNL     1      20.678   8.999  15.280  0.00  0.00    +0.000 OA
ATOM     27  C   UNL     1      20.713   8.062  16.053  0.00  0.00    +0.000 C 
BRANCH  27  28
ATOM     28  O   UNL     1      20.278   6.810  15.808  0.00  0.00    +0.000 OA
ATOM     29  H   UNL     1      20.496   5.630  19.621  0.00  0.00    +0.000 HD
ENDBRANCH  27  28
ENDBRANCH   7  27
BRANCH   8  30
ATOM     30  C   UNL     1      23.498   7.213  16.702  0.00  0.00    +0.000 C 
BRANCH  30  31
ATOM     31  S   UNL     1      24.002   5.580  17.267  0.00  0.00    +0.000 S 
BRANCH  31  35
ATOM     32  S   UNL     1      23.538   3.586  14.958  0.00  0.00    +0.000 S 
ATOM     33  N   UNL     1      25.604   5.095  15.113  0.00  0.00    +0.000 NA
ATOM     34  N   UNL     1      25.764   4.357  13.953  0.00  0.00    +0.000 NA
ATOM     35  C   UNL     1      24.483   4.790  15.732  0.00  0.00    +0.000 A 
ATOM     36  C   UNL     1      24.759   3.532  13.754  0.00  0.00    +0.000 A 
BRANCH  36  37
ATOM     37  C   UNL     1      24.626   2.610  12.609  0.00  0.00    +0.000 C 
BRANCH  37  39
ATOM     38  O   UNL     1      23.407   3.568  10.154  0.00  0.00    +0.000 OA
ATOM     39  N   UNL     1      23.254   2.436  12.183  0.00  0.00    +0.000 N 
ATOM     40  C   UNL     1      22.765   2.934  10.988  0.00  0.00    +0.000 C 
ATOM     41  C   UNL     1      21.314   2.591  10.779  0.00  0.00    +0.000 C 
ATOM     42  H   UNL     1      23.314   1.437   8.572  0.00  0.00    +0.000 HD
ENDBRANCH  37  39
ENDBRANCH  36  37
ENDBRANCH  31  35
ENDBRANCH  30  31
ENDBRANCH   8  30
TORSDOF 11
ENDMDL
MODEL 20
REMARK minimizedAffinity -6.75396395
REMARK minimizedRMSD -1
REMARK  Name = 88339242
REMARK  13 active torsions:
REMARK  status: ('A' for Active; 'I' for Inactive)
REMARK    1  A    between atoms: S_2  and  C_25
REMARK    2  A    between atoms: S_2  and  C_30
REMARK    3  A    between atoms: O_6  and  C_26
REMARK    4  A    between atoms: O_9  and  N_13
REMARK    5  A    between atoms: O_9  and  C_35
REMARK    6  A    between atoms: N_12  and  CA_20
REMARK    7  A    between atoms: N_17  and  C_34
REMARK    8  A    between atoms: CA_22  and  C_26
REMARK    9  A    between atoms: C_23  and  C_25
REMARK   10  A    between atoms: C_27  and  C_28
REMARK   11  A    between atoms: C_28  and  C_29
REMARK   12  A    between atoms: C_32  and  C_34
REMARK   13  A    between atoms: C_36  and  C_37
REMARK                            x       y       z     vdW  Elec       q    Type
REMARK                         _______ _______ _______ _____ _____    ______ ____
ROOT
ATOM      1  S   UNL     1      17.889   5.614  19.245  0.00  0.00    +0.000 S 
ATOM      2  O   UNL     1      18.358  10.081  18.018  0.00  0.00    +0.000 OA
ATOM      3  N   UNL     1      18.014   8.256  19.471  0.00  0.00    +0.000 N 
ATOM      4  C   UNL     1      18.900   7.110  19.368  0.00  0.00    +0.000 C 
ATOM      5  CA  UNL     1      19.376   7.721  18.026  0.00  0.00    +0.000 C 
ATOM      6  C   UNL     1      18.540   8.966  18.449  0.00  0.00    +0.000 C 
ATOM      7  CA  UNL     1      17.031   8.368  20.401  0.00  0.00    +0.000 C 
ATOM      8  C   UNL     1      16.605   7.298  21.113  0.00  0.00    +0.000 C 
ATOM      9  C   UNL     1      17.107   5.876  20.874  0.00  0.00    +0.000 C 
ENDROOT
BRANCH   5  11
ATOM     10  O   UNL     1      21.063   7.914  15.618  0.00  0.00    +0.000 OA
ATOM     11  N   UNL     1      20.811   7.962  17.951  0.00  0.00    +0.000 N 
ATOM     12  C   UNL     1      21.502   8.031  16.750  0.00  0.00    +0.000 C 
ATOM     13  H   UNL     1      20.721   6.280  19.630  0.00  0.00    +0.000 HD
BRANCH  12  15
ATOM     14  N   UNL     1      23.731   8.501  15.890  0.00  0.00    +0.000 NA
ATOM     15  C   UNL     1      22.975   8.293  16.925  0.00  0.00    +0.000 C 
BRANCH  15  19
ATOM     16  S   UNL     1      24.577   7.595  20.505  0.00  0.00    +0.000 S 
ATOM     17  N   UNL     1      23.632   9.481  19.012  0.00  0.00    +0.000 NA
ATOM     18  N   UNL     1      24.390  10.170  21.141  0.00  0.00    +0.000 N 
ATOM     19  C   UNL     1      23.544   8.300  18.299  0.00  0.00    +0.000 A 
ATOM     20  C   UNL     1      24.006   7.172  18.944  0.00  0.00    +0.000 A 
ATOM     21  C   UNL     1      24.161   9.229  20.188  0.00  0.00    +0.000 A 
ATOM     22  H   UNL     1      19.698   6.737  18.738  0.00  0.00    +0.000 HD
ATOM     23  H   UNL     1      19.698   6.737  18.738  0.00  0.00    +0.000 HD
ENDBRANCH  15  19
BRANCH  14  24
ATOM     24  O   UNL     1      25.066   8.717  16.256  0.00  0.00    +0.000 OA
ATOM     25  C   UNL     1      25.539   9.855  15.551  0.00  0.00    +0.000 C 
ENDBRANCH  14  24
ENDBRANCH  12  15
ENDBRANCH   5  11
BRANCH   7  27
ATOM     26  OXT UNL     1      16.728  10.506  21.394  0.00  0.00    +0.000 OA
ATOM     27  C   UNL     1      16.406   9.689  20.554  0.00  0.00    +0.000 C 
BRANCH  27  28
ATOM     28  O   UNL     1      15.438   9.837  19.629  0.00  0.00    +0.000 OA
ATOM     29  H   UNL     1      15.431   5.991  18.537  0.00  0.00    +0.000 HD
ENDBRANCH  27  28
ENDBRANCH   7  27
BRANCH   8  30
ATOM     30  C   UNL     1      15.578   7.357  22.219  0.00  0.00    +0.000 C 
BRANCH  30  31
ATOM     31  S   UNL     1      14.787   5.749  22.385  0.00  0.00    +0.000 S 
BRANCH  31  35
ATOM     32  S   UNL     1      16.584   3.754  23.906  0.00  0.00    +0.000 S 
ATOM     33  N   UNL     1      15.334   5.673  25.057  0.00  0.00    +0.000 NA
ATOM     34  N   UNL     1      16.019   5.014  26.064  0.00  0.00    +0.000 NA
ATOM     35  C   UNL     1      15.544   5.117  23.882  0.00  0.00    +0.000 A 
ATOM     36  C   UNL     1      16.709   3.994  25.600  0.00  0.00    +0.000 A 
BRANCH  36  37
ATOM     37  C   UNL     1      17.546   3.091  26.414  0.00  0.00    +0.000 C 
BRANCH  37  39
ATOM     38  O   UNL     1      17.723   3.168  29.311  0.00  0.00    +0.000 OA
ATOM     39  N   UNL     1      18.521   3.798  27.216  0.00  0.00    +0.000 N 
ATOM     40  C   UNL     1      18.521   3.773  28.600  0.00  0.00    +0.000 C 
ATOM     41  C   UNL     1      19.657   4.572  29.182  0.00  0.00    +0.000 C 
ATOM     42  H   UNL     1      19.668   1.462  29.912  0.00  0.00    +0.000 HD
ENDBRANCH  37  39
ENDBRANCH  36  37
ENDBRANCH  31  35
ENDBRANCH  30  31
ENDBRANCH   8  30
TORSDOF 11
ENDMDL
