MODEL 1
REMARK minimizedAffinity -8.43161011
REMARK minimizedRMSD -1
REMARK  Name = 88452727
REMARK  14 active torsions:
REMARK  status: ('A' for Active; 'I' for Inactive)
REMARK    1  A    between atoms: S_2  and  C_25
REMARK    2  A    between atoms: S_2  and  C_29
REMARK    3  A    between atoms: O_5  and  C_26
REMARK    4  A    between atoms: O_8  and  N_14
REMARK    5  A    between atoms: O_8  and  C_37
REMARK    6  A    between atoms: O_9  and  C_37
REMARK    7  A    between atoms: O_10  and  C_41
REMARK    8  A    between atoms: N_13  and  CA_20
REMARK    9  A    between atoms: N_16  and  C_38
REMARK   10  A    between atoms: CA_22  and  C_26
REMARK   11  A    between atoms: C_23  and  C_25
REMARK   12  A    between atoms: C_27  and  C_28
REMARK   13  A    between atoms: C_28  and  C_30
REMARK   14  A    between atoms: C_37  and  C_39
REMARK                            x       y       z     vdW  Elec       q    Type
REMARK                         _______ _______ _______ _____ _____    ______ ____
ROOT
ATOM      1  O   UNL     1      17.756   5.344  23.472  0.00  0.00    +0.000 OA
ATOM      2  N   UNL     1      16.827   6.631  21.741  0.00  0.00    +0.000 N 
ATOM      3  C   UNL     1      16.987   5.507  22.539  0.00  0.00    +0.000 C 
ATOM      4  H   UNL     1      14.726   8.752  22.849  0.00  0.00    +0.000 HD
ENDROOT
BRANCH   2   9
ATOM      5  S   UNL     1      19.652   6.443  20.432  0.00  0.00    +0.000 S 
ATOM      6  O   UNL     1      16.293   9.660  20.671  0.00  0.00    +0.000 OA
ATOM      7  N   UNL     1      18.471   8.822  20.327  0.00  0.00    +0.000 N 
ATOM      8  C   UNL     1      19.028   7.900  21.303  0.00  0.00    +0.000 C 
ATOM      9  CA  UNL     1      17.609   7.847  21.924  0.00  0.00    +0.000 C 
ATOM     10  C   UNL     1      17.261   8.974  20.909  0.00  0.00    +0.000 C 
ATOM     11  CA  UNL     1      19.138   9.257  19.228  0.00  0.00    +0.000 C 
ATOM     12  C   UNL     1      20.277   8.659  18.805  0.00  0.00    +0.000 C 
ATOM     13  C   UNL     1      20.853   7.402  19.449  0.00  0.00    +0.000 C 
BRANCH  11  15
ATOM     14  OXT UNL     1      17.831  10.235  17.500  0.00  0.00    +0.000 OA
ATOM     15  C   UNL     1      18.536  10.371  18.479  0.00  0.00    +0.000 C 
BRANCH  15  16
ATOM     16  O   UNL     1      18.892  11.538  19.051  0.00  0.00    +0.000 OA
ATOM     17  H   UNL     1      17.241   7.863  19.518  0.00  0.00    +0.000 HD
ENDBRANCH  15  16
ENDBRANCH  11  15
BRANCH  12  18
ATOM     18  C   UNL     1      21.118   9.136  17.645  0.00  0.00    +0.000 C 
BRANCH  18  19
ATOM     19  S   UNL     1      21.241   7.824  16.418  0.00  0.00    +0.000 S 
BRANCH  19  21
ATOM     20  N   UNL     1      25.697   7.054  16.320  0.00  0.00    +0.000 N 
ATOM     21  C   UNL     1      23.007   7.519  16.378  0.00  0.00    +0.000 A 
ATOM     22  C   UNL     1      23.895   8.519  16.761  0.00  0.00    +0.000 A 
ATOM     23  C   UNL     1      23.492   6.281  15.965  0.00  0.00    +0.000 A 
ATOM     24  C   UNL     1      25.257   8.255  16.721  0.00  0.00    +0.000 A 
ATOM     25  C   UNL     1      24.864   6.073  15.947  0.00  0.00    +0.000 A 
ATOM     26  C   UNL     1      27.135   6.807  16.288  0.00  0.00    +0.000 C 
ENDBRANCH  19  21
ENDBRANCH  18  19
ENDBRANCH  12  18
ENDBRANCH   2   9
BRANCH   3  28
ATOM     27  N   UNL     1      15.102   4.021  22.943  0.00  0.00    +0.000 NA
ATOM     28  C   UNL     1      16.074   4.373  22.155  0.00  0.00    +0.000 C 
BRANCH  28  32
ATOM     29  S   UNL     1      16.064   2.820  18.487  0.00  0.00    +0.000 S 
ATOM     30  N   UNL     1      17.400   2.852  20.700  0.00  0.00    +0.000 NA
ATOM     31  N   UNL     1      18.317   1.499  18.991  0.00  0.00    +0.000 N 
ATOM     32  C   UNL     1      16.301   3.671  20.863  0.00  0.00    +0.000 A 
ATOM     33  C   UNL     1      15.462   3.779  19.775  0.00  0.00    +0.000 A 
ATOM     34  C   UNL     1      17.379   2.349  19.484  0.00  0.00    +0.000 A 
ATOM     35  H   UNL     1      17.565   7.712  25.001  0.00  0.00    +0.000 HD
ATOM     36  H   UNL     1      17.565   7.712  25.001  0.00  0.00    +0.000 HD
ENDBRANCH  28  32
BRANCH  27  37
ATOM     37  O   UNL     1      15.061   4.811  24.101  0.00  0.00    +0.000 OA
BRANCH  37  38
ATOM     38  C   UNL     1      13.716   5.235  24.314  0.00  0.00    +0.000 C 
BRANCH  38  41
ATOM     39  O   UNL     1      14.795   9.834  23.451  0.00  0.00    +0.000 OA
ATOM     40  N   UNL     1      12.439   6.553  22.756  0.00  0.00    +0.000 NA
ATOM     41  C   UNL     1      13.515   6.538  23.615  0.00  0.00    +0.000 C 
ATOM     42  C   UNL     1      14.346   7.563  23.861  0.00  0.00    +0.000 C 
ATOM     43  C   UNL     1      13.050   8.869  22.115  0.00  0.00    +0.000 C 
ATOM     44  C   UNL     1      14.123   8.847  23.165  0.00  0.00    +0.000 C 
ATOM     45  C   UNL     1      12.217   7.626  22.065  0.00  0.00    +0.000 C 
BRANCH  43  46
ATOM     46  O   UNL     1      12.169   9.937  22.385  0.00  0.00    +0.000 OA
ATOM     47  H   UNL     1      13.372   8.126  26.398  0.00  0.00    +0.000 HD
ENDBRANCH  43  46
ENDBRANCH  38  41
BRANCH  38  48
ATOM     48  O   UNL     1      13.414   5.363  25.700  0.00  0.00    +0.000 OA
ATOM     49  H   UNL     1      14.044   5.199  20.749  0.00  0.00    +0.000 HD
ENDBRANCH  38  48
ENDBRANCH  37  38
ENDBRANCH  27  37
ENDBRANCH   3  28
TORSDOF 13
ENDMDL
MODEL 2
REMARK minimizedAffinity -8.01699162
REMARK minimizedRMSD -1
REMARK  Name = 88452727
REMARK  14 active torsions:
REMARK  status: ('A' for Active; 'I' for Inactive)
REMARK    1  A    between atoms: S_2  and  C_25
REMARK    2  A    between atoms: S_2  and  C_29
REMARK    3  A    between atoms: O_5  and  C_26
REMARK    4  A    between atoms: O_8  and  N_14
REMARK    5  A    between atoms: O_8  and  C_37
REMARK    6  A    between atoms: O_9  and  C_37
REMARK    7  A    between atoms: O_10  and  C_41
REMARK    8  A    between atoms: N_13  and  CA_20
REMARK    9  A    between atoms: N_16  and  C_38
REMARK   10  A    between atoms: CA_22  and  C_26
REMARK   11  A    between atoms: C_23  and  C_25
REMARK   12  A    between atoms: C_27  and  C_28
REMARK   13  A    between atoms: C_28  and  C_30
REMARK   14  A    between atoms: C_37  and  C_39
REMARK                            x       y       z     vdW  Elec       q    Type
REMARK                         _______ _______ _______ _____ _____    ______ ____
ROOT
ATOM      1  O   UNL     1      11.872   3.613  25.080  0.00  0.00    +0.000 OA
ATOM      2  N   UNL     1      12.619   4.979  23.322  0.00  0.00    +0.000 N 
ATOM      3  C   UNL     1      11.964   3.900  23.897  0.00  0.00    +0.000 C 
ATOM      4  H   UNL     1      10.843   7.606  23.036  0.00  0.00    +0.000 HD
ENDROOT
BRANCH   2   9
ATOM      5  S   UNL     1      15.709   4.825  22.927  0.00  0.00    +0.000 S 
ATOM      6  O   UNL     1      12.542   8.231  23.159  0.00  0.00    +0.000 OA
ATOM      7  N   UNL     1      14.690   7.261  23.234  0.00  0.00    +0.000 N 
ATOM      8  C   UNL     1      14.876   6.031  23.987  0.00  0.00    +0.000 C 
ATOM      9  CA  UNL     1      13.332   5.980  24.105  0.00  0.00    +0.000 C 
ATOM     10  C   UNL     1      13.362   7.388  23.445  0.00  0.00    +0.000 C 
ATOM     11  CA  UNL     1      15.688   7.909  22.582  0.00  0.00    +0.000 C 
ATOM     12  C   UNL     1      16.887   7.321  22.352  0.00  0.00    +0.000 C 
ATOM     13  C   UNL     1      17.189   5.868  22.706  0.00  0.00    +0.000 C 
BRANCH  11  15
ATOM     14  OXT UNL     1      15.140   9.520  20.921  0.00  0.00    +0.000 OA
ATOM     15  C   UNL     1      15.391   9.260  22.080  0.00  0.00    +0.000 C 
BRANCH  15  16
ATOM     16  O   UNL     1      15.444  10.137  23.102  0.00  0.00    +0.000 OA
ATOM     17  H   UNL     1      13.889   6.694  21.626  0.00  0.00    +0.000 HD
ENDBRANCH  15  16
ENDBRANCH  11  15
BRANCH  12  18
ATOM     18  C   UNL     1      18.070   8.005  21.710  0.00  0.00    +0.000 C 
BRANCH  18  19
ATOM     19  S   UNL     1      18.028   7.724  19.932  0.00  0.00    +0.000 S 
BRANCH  19  21
ATOM     20  N   UNL     1      22.251   8.798  18.717  0.00  0.00    +0.000 N 
ATOM     21  C   UNL     1      19.702   8.151  19.450  0.00  0.00    +0.000 A 
ATOM     22  C   UNL     1      20.708   8.211  20.408  0.00  0.00    +0.000 A 
ATOM     23  C   UNL     1      19.995   8.422  18.117  0.00  0.00    +0.000 A 
ATOM     24  C   UNL     1      21.994   8.542  20.007  0.00  0.00    +0.000 A 
ATOM     25  C   UNL     1      21.300   8.747  17.773  0.00  0.00    +0.000 A 
ATOM     26  C   UNL     1      23.613   9.145  18.326  0.00  0.00    +0.000 C 
ENDBRANCH  19  21
ENDBRANCH  18  19
ENDBRANCH  12  18
ENDBRANCH   2   9
BRANCH   3  28
ATOM     27  N   UNL     1      10.038   3.122  22.627  0.00  0.00    +0.000 NA
ATOM     28  C   UNL     1      11.306   2.998  22.887  0.00  0.00    +0.000 C 
BRANCH  28  32
ATOM     29  S   UNL     1      12.986  -0.208  21.223  0.00  0.00    +0.000 S 
ATOM     30  N   UNL     1      13.328   2.326  21.602  0.00  0.00    +0.000 NA
ATOM     31  N   UNL     1      15.052   1.248  20.396  0.00  0.00    +0.000 N 
ATOM     32  C   UNL     1      12.130   1.973  22.192  0.00  0.00    +0.000 A 
ATOM     33  C   UNL     1      11.777   0.644  22.090  0.00  0.00    +0.000 A 
ATOM     34  C   UNL     1      13.866   1.256  21.060  0.00  0.00    +0.000 A 
ATOM     35  H   UNL     1       8.637   6.750  22.363  0.00  0.00    +0.000 HD
ATOM     36  H   UNL     1       8.637   6.750  22.363  0.00  0.00    +0.000 HD
ENDBRANCH  28  32
BRANCH  27  37
ATOM     37  O   UNL     1       9.452   4.147  23.384  0.00  0.00    +0.000 OA
BRANCH  37  38
ATOM     38  C   UNL     1       8.181   4.460  22.817  0.00  0.00    +0.000 C 
BRANCH  38  41
ATOM     39  O   UNL     1       5.126   4.672  26.516  0.00  0.00    +0.000 OA
ATOM     40  N   UNL     1       6.781   2.590  23.397  0.00  0.00    +0.000 NA
ATOM     41  C   UNL     1       7.118   3.891  23.696  0.00  0.00    +0.000 C 
ATOM     42  C   UNL     1       6.591   4.640  24.678  0.00  0.00    +0.000 C 
ATOM     43  C   UNL     1       5.047   2.689  25.167  0.00  0.00    +0.000 C 
ATOM     44  C   UNL     1       5.547   4.054  25.542  0.00  0.00    +0.000 C 
ATOM     45  C   UNL     1       5.831   2.029  24.075  0.00  0.00    +0.000 C 
BRANCH  43  46
ATOM     46  O   UNL     1       5.134   1.845  26.295  0.00  0.00    +0.000 OA
ATOM     47  H   UNL     1       8.811   4.547  26.340  0.00  0.00    +0.000 HD
ENDBRANCH  43  46
ENDBRANCH  38  41
BRANCH  38  48
ATOM     48  O   UNL     1       8.053   3.956  21.491  0.00  0.00    +0.000 OA
ATOM     49  H   UNL     1       7.984   5.780  26.139  0.00  0.00    +0.000 HD
ENDBRANCH  38  48
ENDBRANCH  37  38
ENDBRANCH  27  37
ENDBRANCH   3  28
TORSDOF 13
ENDMDL
MODEL 3
REMARK minimizedAffinity -7.90487814
REMARK minimizedRMSD -1
REMARK  Name = 88452727
REMARK  14 active torsions:
REMARK  status: ('A' for Active; 'I' for Inactive)
REMARK    1  A    between atoms: S_2  and  C_25
REMARK    2  A    between atoms: S_2  and  C_29
REMARK    3  A    between atoms: O_5  and  C_26
REMARK    4  A    between atoms: O_8  and  N_14
REMARK    5  A    between atoms: O_8  and  C_37
REMARK    6  A    between atoms: O_9  and  C_37
REMARK    7  A    between atoms: O_10  and  C_41
REMARK    8  A    between atoms: N_13  and  CA_20
REMARK    9  A    between atoms: N_16  and  C_38
REMARK   10  A    between atoms: CA_22  and  C_26
REMARK   11  A    between atoms: C_23  and  C_25
REMARK   12  A    between atoms: C_27  and  C_28
REMARK   13  A    between atoms: C_28  and  C_30
REMARK   14  A    between atoms: C_37  and  C_39
REMARK                            x       y       z     vdW  Elec       q    Type
REMARK                         _______ _______ _______ _____ _____    ______ ____
ROOT
ATOM      1  O   UNL     1      12.702   3.923  25.384  0.00  0.00    +0.000 OA
ATOM      2  N   UNL     1      12.829   5.530  23.676  0.00  0.00    +0.000 N 
ATOM      3  C   UNL     1      12.444   4.334  24.264  0.00  0.00    +0.000 C 
ATOM      4  H   UNL     1      10.839   7.961  24.197  0.00  0.00    +0.000 HD
ENDROOT
BRANCH   2   9
ATOM      5  S   UNL     1      15.871   5.192  23.077  0.00  0.00    +0.000 S 
ATOM      6  O   UNL     1      12.908   8.773  23.376  0.00  0.00    +0.000 OA
ATOM      7  N   UNL     1      15.004   7.691  23.346  0.00  0.00    +0.000 N 
ATOM      8  C   UNL     1      15.179   6.484  24.138  0.00  0.00    +0.000 C 
ATOM      9  CA  UNL     1      13.646   6.521  24.364  0.00  0.00    +0.000 C 
ATOM     10  C   UNL     1      13.702   7.899  23.642  0.00  0.00    +0.000 C 
ATOM     11  CA  UNL     1      15.985   8.257  22.599  0.00  0.00    +0.000 C 
ATOM     12  C   UNL     1      17.132   7.595  22.313  0.00  0.00    +0.000 C 
ATOM     13  C   UNL     1      17.383   6.143  22.709  0.00  0.00    +0.000 C 
BRANCH  11  15
ATOM     14  OXT UNL     1      15.942  10.633  22.661  0.00  0.00    +0.000 OA
ATOM     15  C   UNL     1      15.723   9.601  22.060  0.00  0.00    +0.000 C 
BRANCH  15  16
ATOM     16  O   UNL     1      15.210   9.492  20.819  0.00  0.00    +0.000 OA
ATOM     17  H   UNL     1      18.208   8.535  23.378  0.00  0.00    +0.000 HD
ENDBRANCH  15  16
ENDBRANCH  11  15
BRANCH  12  18
ATOM     18  C   UNL     1      18.300   8.188  21.562  0.00  0.00    +0.000 C 
BRANCH  18  19
ATOM     19  S   UNL     1      18.190   7.723  19.826  0.00  0.00    +0.000 S 
BRANCH  19  21
ATOM     20  N   UNL     1      22.324   8.765  18.315  0.00  0.00    +0.000 N 
ATOM     21  C   UNL     1      19.828   8.137  19.226  0.00  0.00    +0.000 A 
ATOM     22  C   UNL     1      20.839   8.454  20.127  0.00  0.00    +0.000 A 
ATOM     23  C   UNL     1      20.090   8.141  17.859  0.00  0.00    +0.000 A 
ATOM     24  C   UNL     1      22.098   8.769  19.636  0.00  0.00    +0.000 A 
ATOM     25  C   UNL     1      21.368   8.464  17.425  0.00  0.00    +0.000 A 
ATOM     26  C   UNL     1      23.657   9.102  17.828  0.00  0.00    +0.000 C 
ENDBRANCH  19  21
ENDBRANCH  18  19
ENDBRANCH  12  18
ENDBRANCH   2   9
BRANCH   3  28
ATOM     27  N   UNL     1      12.177   2.747  22.438  0.00  0.00    +0.000 NA
ATOM     28  C   UNL     1      11.609   3.469  23.357  0.00  0.00    +0.000 C 
BRANCH  28  32
ATOM     29  S   UNL     1       7.778   2.826  24.238  0.00  0.00    +0.000 S 
ATOM     30  N   UNL     1       9.348   4.421  22.944  0.00  0.00    +0.000 NA
ATOM     31  N   UNL     1       7.048   4.957  22.823  0.00  0.00    +0.000 N 
ATOM     32  C   UNL     1      10.133   3.452  23.537  0.00  0.00    +0.000 A 
ATOM     33  C   UNL     1       9.462   2.503  24.278  0.00  0.00    +0.000 A 
ATOM     34  C   UNL     1       8.089   4.191  23.245  0.00  0.00    +0.000 A 
ATOM     35  H   UNL     1      15.555   5.676  24.374  0.00  0.00    +0.000 HD
ATOM     36  H   UNL     1      15.555   5.676  24.374  0.00  0.00    +0.000 HD
ENDBRANCH  28  32
BRANCH  27  37
ATOM     37  O   UNL     1      13.571   2.904  22.442  0.00  0.00    +0.000 OA
BRANCH  37  38
ATOM     38  C   UNL     1      14.165   1.704  21.949  0.00  0.00    +0.000 C 
BRANCH  38  41
ATOM     39  O   UNL     1      16.689   0.489  18.049  0.00  0.00    +0.000 OA
ATOM     40  N   UNL     1      14.971   3.368  20.407  0.00  0.00    +0.000 NA
ATOM     41  C   UNL     1      14.889   2.022  20.684  0.00  0.00    +0.000 C 
ATOM     42  C   UNL     1      15.397   1.028  19.938  0.00  0.00    +0.000 C 
ATOM     43  C   UNL     1      16.111   2.807  18.278  0.00  0.00    +0.000 C 
ATOM     44  C   UNL     1      16.118   1.364  18.693  0.00  0.00    +0.000 C 
ATOM     45  C   UNL     1      15.537   3.736  19.302  0.00  0.00    +0.000 C 
BRANCH  43  46
ATOM     46  O   UNL     1      17.441   3.224  18.052  0.00  0.00    +0.000 OA
ATOM     47  H   UNL     1      17.492   0.418  21.651  0.00  0.00    +0.000 HD
ENDBRANCH  43  46
ENDBRANCH  38  41
BRANCH  38  48
ATOM     48  O   UNL     1      13.195   0.685  21.725  0.00  0.00    +0.000 OA
ATOM     49  H   UNL     1      16.919   3.976  22.215  0.00  0.00    +0.000 HD
ENDBRANCH  38  48
ENDBRANCH  37  38
ENDBRANCH  27  37
ENDBRANCH   3  28
TORSDOF 13
ENDMDL
MODEL 4
REMARK minimizedAffinity -7.76443195
REMARK minimizedRMSD -1
REMARK  Name = 88452727
REMARK  14 active torsions:
REMARK  status: ('A' for Active; 'I' for Inactive)
REMARK    1  A    between atoms: S_2  and  C_25
REMARK    2  A    between atoms: S_2  and  C_29
REMARK    3  A    between atoms: O_5  and  C_26
REMARK    4  A    between atoms: O_8  and  N_14
REMARK    5  A    between atoms: O_8  and  C_37
REMARK    6  A    between atoms: O_9  and  C_37
REMARK    7  A    between atoms: O_10  and  C_41
REMARK    8  A    between atoms: N_13  and  CA_20
REMARK    9  A    between atoms: N_16  and  C_38
REMARK   10  A    between atoms: CA_22  and  C_26
REMARK   11  A    between atoms: C_23  and  C_25
REMARK   12  A    between atoms: C_27  and  C_28
REMARK   13  A    between atoms: C_28  and  C_30
REMARK   14  A    between atoms: C_37  and  C_39
REMARK                            x       y       z     vdW  Elec       q    Type
REMARK                         _______ _______ _______ _____ _____    ______ ____
ROOT
ATOM      1  O   UNL     1      18.521   4.963  19.778  0.00  0.00    +0.000 OA
ATOM      2  N   UNL     1      17.761   6.595  21.286  0.00  0.00    +0.000 N 
ATOM      3  C   UNL     1      18.641   5.649  20.781  0.00  0.00    +0.000 C 
ATOM      4  H   UNL     1      18.185   9.538  20.148  0.00  0.00    +0.000 HD
ENDROOT
BRANCH   2   9
ATOM      5  S   UNL     1      15.559   4.462  21.858  0.00  0.00    +0.000 S 
ATOM      6  O   UNL     1      15.747   9.113  21.744  0.00  0.00    +0.000 OA
ATOM      7  N   UNL     1      14.733   6.984  21.714  0.00  0.00    +0.000 N 
ATOM      8  C   UNL     1      15.301   5.951  20.864  0.00  0.00    +0.000 C 
ATOM      9  CA  UNL     1      16.493   6.917  20.645  0.00  0.00    +0.000 C 
ATOM     10  C   UNL     1      15.636   7.949  21.433  0.00  0.00    +0.000 C 
ATOM     11  CA  UNL     1      13.630   6.810  22.485  0.00  0.00    +0.000 C 
ATOM     12  C   UNL     1      13.123   5.579  22.734  0.00  0.00    +0.000 C 
ATOM     13  C   UNL     1      13.790   4.288  22.267  0.00  0.00    +0.000 C 
BRANCH  11  15
ATOM     14  OXT UNL     1      13.253   8.384  24.226  0.00  0.00    +0.000 OA
ATOM     15  C   UNL     1      13.041   8.015  23.089  0.00  0.00    +0.000 C 
BRANCH  15  16
ATOM     16  O   UNL     1      12.246   8.624  22.187  0.00  0.00    +0.000 OA
ATOM     17  H   UNL     1      15.912   7.120  23.052  0.00  0.00    +0.000 HD
ENDBRANCH  15  16
ENDBRANCH  11  15
BRANCH  12  18
ATOM     18  C   UNL     1      11.855   5.313  23.510  0.00  0.00    +0.000 C 
BRANCH  18  19
ATOM     19  S   UNL     1      11.440   3.565  23.392  0.00  0.00    +0.000 S 
BRANCH  19  21
ATOM     20  N   UNL     1       6.920   3.668  23.531  0.00  0.00    +0.000 N 
ATOM     21  C   UNL     1       9.648   3.606  23.445  0.00  0.00    +0.000 A 
ATOM     22  C   UNL     1       8.952   2.648  24.176  0.00  0.00    +0.000 A 
ATOM     23  C   UNL     1       8.952   4.595  22.758  0.00  0.00    +0.000 A 
ATOM     24  C   UNL     1       7.566   2.704  24.201  0.00  0.00    +0.000 A 
ATOM     25  C   UNL     1       7.565   4.603  22.819  0.00  0.00    +0.000 A 
ATOM     26  C   UNL     1       5.462   3.700  23.575  0.00  0.00    +0.000 C 
ENDBRANCH  19  21
ENDBRANCH  18  19
ENDBRANCH  12  18
ENDBRANCH   2   9
BRANCH   3  28
ATOM     27  N   UNL     1      20.994   6.050  21.258  0.00  0.00    +0.000 NA
ATOM     28  C   UNL     1      19.881   5.484  21.619  0.00  0.00    +0.000 C 
BRANCH  28  32
ATOM     29  S   UNL     1      20.323   3.040  24.733  0.00  0.00    +0.000 S 
ATOM     30  N   UNL     1      18.717   4.785  23.704  0.00  0.00    +0.000 NA
ATOM     31  N   UNL     1      17.993   3.831  25.743  0.00  0.00    +0.000 N 
ATOM     32  C   UNL     1      19.807   4.672  22.863  0.00  0.00    +0.000 A 
ATOM     33  C   UNL     1      20.780   3.776  23.253  0.00  0.00    +0.000 A 
ATOM     34  C   UNL     1      18.882   3.971  24.724  0.00  0.00    +0.000 A 
ATOM     35  H   UNL     1      20.401   9.741  19.864  0.00  0.00    +0.000 HD
ATOM     36  H   UNL     1      20.401   9.741  19.864  0.00  0.00    +0.000 HD
ENDBRANCH  28  32
BRANCH  27  37
ATOM     37  O   UNL     1      20.846   6.771  20.065  0.00  0.00    +0.000 OA
BRANCH  37  38
ATOM     38  C   UNL     1      21.201   8.131  20.307  0.00  0.00    +0.000 C 
BRANCH  38  41
ATOM     39  O   UNL     1      18.464  10.150  16.917  0.00  0.00    +0.000 OA
ATOM     40  N   UNL     1      19.432   9.663  20.870  0.00  0.00    +0.000 NA
ATOM     41  C   UNL     1      20.079   9.001  19.850  0.00  0.00    +0.000 C 
ATOM     42  C   UNL     1      19.790   9.088  18.542  0.00  0.00    +0.000 C 
ATOM     43  C   UNL     1      17.857  10.593  19.196  0.00  0.00    +0.000 C 
ATOM     44  C   UNL     1      18.681   9.962  18.111  0.00  0.00    +0.000 C 
ATOM     45  C   UNL     1      18.410  10.402  20.574  0.00  0.00    +0.000 C 
BRANCH  43  46
ATOM     46  O   UNL     1      17.798  11.986  18.973  0.00  0.00    +0.000 OA
ATOM     47  H   UNL     1      22.005  10.613  17.855  0.00  0.00    +0.000 HD
ENDBRANCH  43  46
ENDBRANCH  38  41
BRANCH  38  48
ATOM     48  O   UNL     1      22.410   8.489  19.645  0.00  0.00    +0.000 OA
ATOM     49  H   UNL     1      18.083   7.744  22.024  0.00  0.00    +0.000 HD
ENDBRANCH  38  48
ENDBRANCH  37  38
ENDBRANCH  27  37
ENDBRANCH   3  28
TORSDOF 13
ENDMDL
MODEL 5
REMARK minimizedAffinity -7.64766169
REMARK minimizedRMSD -1
REMARK  Name = 88452727
REMARK  14 active torsions:
REMARK  status: ('A' for Active; 'I' for Inactive)
REMARK    1  A    between atoms: S_2  and  C_25
REMARK    2  A    between atoms: S_2  and  C_29
REMARK    3  A    between atoms: O_5  and  C_26
REMARK    4  A    between atoms: O_8  and  N_14
REMARK    5  A    between atoms: O_8  and  C_37
REMARK    6  A    between atoms: O_9  and  C_37
REMARK    7  A    between atoms: O_10  and  C_41
REMARK    8  A    between atoms: N_13  and  CA_20
REMARK    9  A    between atoms: N_16  and  C_38
REMARK   10  A    between atoms: CA_22  and  C_26
REMARK   11  A    between atoms: C_23  and  C_25
REMARK   12  A    between atoms: C_27  and  C_28
REMARK   13  A    between atoms: C_28  and  C_30
REMARK   14  A    between atoms: C_37  and  C_39
REMARK                            x       y       z     vdW  Elec       q    Type
REMARK                         _______ _______ _______ _____ _____    ______ ____
ROOT
ATOM      1  O   UNL     1      20.470   7.280  15.613  0.00  0.00    +0.000 OA
ATOM      2  N   UNL     1      22.490   6.730  16.676  0.00  0.00    +0.000 N 
ATOM      3  C   UNL     1      21.180   6.532  16.266  0.00  0.00    +0.000 C 
ATOM      4  H   UNL     1      24.691   5.758  14.591  0.00  0.00    +0.000 HD
ENDROOT
BRANCH   2   9
ATOM      5  S   UNL     1      22.800   8.621  19.138  0.00  0.00    +0.000 S 
ATOM      6  O   UNL     1      25.585   7.098  15.731  0.00  0.00    +0.000 OA
ATOM      7  N   UNL     1      24.875   8.511  17.480  0.00  0.00    +0.000 N 
ATOM      8  C   UNL     1      23.492   8.958  17.501  0.00  0.00    +0.000 C 
ATOM      9  CA  UNL     1      23.243   7.938  16.361  0.00  0.00    +0.000 C 
ATOM     10  C   UNL     1      24.786   7.736  16.377  0.00  0.00    +0.000 C 
ATOM     11  CA  UNL     1      25.804   8.875  18.401  0.00  0.00    +0.000 C 
ATOM     12  C   UNL     1      25.453   9.469  19.567  0.00  0.00    +0.000 C 
ATOM     13  C   UNL     1      24.006   9.687  19.995  0.00  0.00    +0.000 C 
BRANCH  11  15
ATOM     14  OXT UNL     1      27.963   9.263  17.485  0.00  0.00    +0.000 OA
ATOM     15  C   UNL     1      27.205   8.542  18.103  0.00  0.00    +0.000 C 
BRANCH  15  16
ATOM     16  O   UNL     1      27.496   7.332  18.619  0.00  0.00    +0.000 OA
ATOM     17  H   UNL     1      26.060  11.070  19.264  0.00  0.00    +0.000 HD
ENDBRANCH  15  16
ENDBRANCH  11  15
BRANCH  12  18
ATOM     18  C   UNL     1      26.432   9.978  20.598  0.00  0.00    +0.000 C 
BRANCH  18  19
ATOM     19  S   UNL     1      25.527  10.755  21.946  0.00  0.00    +0.000 S 
BRANCH  19  21
ATOM     20  N   UNL     1      26.183   7.825  25.329  0.00  0.00    +0.000 N 
ATOM     21  C   UNL     1      25.788   9.593  23.287  0.00  0.00    +0.000 A 
ATOM     22  C   UNL     1      25.646  10.010  24.606  0.00  0.00    +0.000 A 
ATOM     23  C   UNL     1      26.133   8.274  23.009  0.00  0.00    +0.000 A 
ATOM     24  C   UNL     1      25.852   9.090  25.624  0.00  0.00    +0.000 A 
ATOM     25  C   UNL     1      26.326   7.397  24.067  0.00  0.00    +0.000 A 
ATOM     26  C   UNL     1      26.395   6.880  26.421  0.00  0.00    +0.000 C 
ENDBRANCH  19  21
ENDBRANCH  18  19
ENDBRANCH  12  18
ENDBRANCH   2   9
BRANCH   3  28
ATOM     27  N   UNL     1      19.937   5.138  17.827  0.00  0.00    +0.000 NA
ATOM     28  C   UNL     1      20.609   5.214  16.717  0.00  0.00    +0.000 C 
BRANCH  28  32
ATOM     29  S   UNL     1      21.494   1.708  15.046  0.00  0.00    +0.000 S 
ATOM     30  N   UNL     1      20.405   4.000  14.555  0.00  0.00    +0.000 NA
ATOM     31  N   UNL     1      20.435   2.491  12.735  0.00  0.00    +0.000 N 
ATOM     32  C   UNL     1      20.823   4.010  15.871  0.00  0.00    +0.000 A 
ATOM     33  C   UNL     1      21.435   2.857  16.317  0.00  0.00    +0.000 A 
ATOM     34  C   UNL     1      20.707   2.837  14.021  0.00  0.00    +0.000 A 
ATOM     35  H   UNL     1      17.474   7.851  18.883  0.00  0.00    +0.000 HD
ATOM     36  H   UNL     1      17.474   7.851  18.883  0.00  0.00    +0.000 HD
ENDBRANCH  28  32
BRANCH  27  37
ATOM     37  O   UNL     1      19.848   6.383  18.466  0.00  0.00    +0.000 OA
BRANCH  37  38
ATOM     38  C   UNL     1      18.518   6.549  18.955  0.00  0.00    +0.000 C 
BRANCH  38  41
ATOM     39  O   UNL     1      16.426  10.301  21.101  0.00  0.00    +0.000 OA
ATOM     40  N   UNL     1      18.858   8.797  18.164  0.00  0.00    +0.000 NA
ATOM     41  C   UNL     1      18.254   8.008  19.117  0.00  0.00    +0.000 C 
ATOM     42  C   UNL     1      17.477   8.438  20.124  0.00  0.00    +0.000 C 
ATOM     43  C   UNL     1      17.970  10.796  19.331  0.00  0.00    +0.000 C 
ATOM     44  C   UNL     1      17.221   9.886  20.261  0.00  0.00    +0.000 C 
ATOM     45  C   UNL     1      18.726  10.082  18.255  0.00  0.00    +0.000 C 
BRANCH  43  46
ATOM     46  O   UNL     1      17.049  11.647  18.684  0.00  0.00    +0.000 OA
ATOM     47  H   UNL     1      15.081   7.545  19.046  0.00  0.00    +0.000 HD
ENDBRANCH  43  46
ENDBRANCH  38  41
BRANCH  38  48
ATOM     48  O   UNL     1      18.319   5.867  20.189  0.00  0.00    +0.000 OA
ATOM     49  H   UNL     1      18.582   8.522  15.969  0.00  0.00    +0.000 HD
ENDBRANCH  38  48
ENDBRANCH  37  38
ENDBRANCH  27  37
ENDBRANCH   3  28
TORSDOF 13
ENDMDL
MODEL 6
REMARK minimizedAffinity -7.62588072
REMARK minimizedRMSD -1
REMARK  Name = 88452727
REMARK  14 active torsions:
REMARK  status: ('A' for Active; 'I' for Inactive)
REMARK    1  A    between atoms: S_2  and  C_25
REMARK    2  A    between atoms: S_2  and  C_29
REMARK    3  A    between atoms: O_5  and  C_26
REMARK    4  A    between atoms: O_8  and  N_14
REMARK    5  A    between atoms: O_8  and  C_37
REMARK    6  A    between atoms: O_9  and  C_37
REMARK    7  A    between atoms: O_10  and  C_41
REMARK    8  A    between atoms: N_13  and  CA_20
REMARK    9  A    between atoms: N_16  and  C_38
REMARK   10  A    between atoms: CA_22  and  C_26
REMARK   11  A    between atoms: C_23  and  C_25
REMARK   12  A    between atoms: C_27  and  C_28
REMARK   13  A    between atoms: C_28  and  C_30
REMARK   14  A    between atoms: C_37  and  C_39
REMARK                            x       y       z     vdW  Elec       q    Type
REMARK                         _______ _______ _______ _____ _____    ______ ____
ROOT
ATOM      1  O   UNL     1      14.464   3.100  24.132  0.00  0.00    +0.000 OA
ATOM      2  N   UNL     1      14.358   4.920  22.651  0.00  0.00    +0.000 N 
ATOM      3  C   UNL     1      14.171   3.608  23.061  0.00  0.00    +0.000 C 
ATOM      4  H   UNL     1      11.960   6.887  23.373  0.00  0.00    +0.000 HD
ENDROOT
BRANCH   2   9
ATOM      5  S   UNL     1      17.347   5.438  21.929  0.00  0.00    +0.000 S 
ATOM      6  O   UNL     1      13.666   8.085  22.990  0.00  0.00    +0.000 OA
ATOM      7  N   UNL     1      15.947   7.562  22.701  0.00  0.00    +0.000 N 
ATOM      8  C   UNL     1      16.450   6.307  23.237  0.00  0.00    +0.000 C 
ATOM      9  CA  UNL     1      14.970   5.934  23.501  0.00  0.00    +0.000 C 
ATOM     10  C   UNL     1      14.656   7.393  23.061  0.00  0.00    +0.000 C 
ATOM     11  CA  UNL     1      16.718   8.475  22.057  0.00  0.00    +0.000 C 
ATOM     12  C   UNL     1      17.964   8.172  21.622  0.00  0.00    +0.000 C 
ATOM     13  C   UNL     1      18.570   6.775  21.719  0.00  0.00    +0.000 C 
BRANCH  11  15
ATOM     14  OXT UNL     1      16.013  10.672  22.628  0.00  0.00    +0.000 OA
ATOM     15  C   UNL     1      16.116   9.792  21.798  0.00  0.00    +0.000 C 
BRANCH  15  16
ATOM     16  O   UNL     1      15.709   9.853  20.514  0.00  0.00    +0.000 OA
ATOM     17  H   UNL     1      18.739   9.128  23.112  0.00  0.00    +0.000 HD
ENDBRANCH  15  16
ENDBRANCH  11  15
BRANCH  12  18
ATOM     18  C   UNL     1      18.909   9.156  20.974  0.00  0.00    +0.000 C 
BRANCH  18  19
ATOM     19  S   UNL     1      19.014   8.809  19.211  0.00  0.00    +0.000 S 
BRANCH  19  21
ATOM     20  N   UNL     1      23.482   8.889  18.508  0.00  0.00    +0.000 N 
ATOM     21  C   UNL     1      20.785   8.842  18.931  0.00  0.00    +0.000 A 
ATOM     22  C   UNL     1      21.650   9.133  19.981  0.00  0.00    +0.000 A 
ATOM     23  C   UNL     1      21.296   8.575  17.664  0.00  0.00    +0.000 A 
ATOM     24  C   UNL     1      23.016   9.150  19.737  0.00  0.00    +0.000 A 
ATOM     25  C   UNL     1      22.672   8.605  17.479  0.00  0.00    +0.000 A 
ATOM     26  C   UNL     1      24.923   8.915  18.282  0.00  0.00    +0.000 C 
ENDBRANCH  19  21
ENDBRANCH  18  19
ENDBRANCH  12  18
ENDBRANCH   2   9
BRANCH   3  28
ATOM     27  N   UNL     1      12.233   2.635  21.956  0.00  0.00    +0.000 NA
ATOM     28  C   UNL     1      13.527   2.744  22.010  0.00  0.00    +0.000 C 
BRANCH  28  32
ATOM     29  S   UNL     1      15.612   0.225  19.736  0.00  0.00    +0.000 S 
ATOM     30  N   UNL     1      15.133   2.738  20.110  0.00  0.00    +0.000 NA
ATOM     31  N   UNL     1      16.648   2.252  18.360  0.00  0.00    +0.000 N 
ATOM     32  C   UNL     1      14.394   2.029  21.036  0.00  0.00    +0.000 A 
ATOM     33  C   UNL     1      14.522   0.657  20.988  0.00  0.00    +0.000 A 
ATOM     34  C   UNL     1      15.814   1.889  19.371  0.00  0.00    +0.000 A 
ATOM     35  H   UNL     1       9.682   5.272  22.561  0.00  0.00    +0.000 HD
ATOM     36  H   UNL     1       9.682   5.272  22.561  0.00  0.00    +0.000 HD
ENDBRANCH  28  32
BRANCH  27  37
ATOM     37  O   UNL     1      11.606   3.392  22.957  0.00  0.00    +0.000 OA
BRANCH  37  38
ATOM     38  C   UNL     1      10.794   2.523  23.743  0.00  0.00    +0.000 C 
BRANCH  38  41
ATOM     39  O   UNL     1       6.264   2.591  25.336  0.00  0.00    +0.000 OA
ATOM     40  N   UNL     1       9.210   4.156  22.956  0.00  0.00    +0.000 NA
ATOM     41  C   UNL     1       9.416   3.092  23.805  0.00  0.00    +0.000 C 
ATOM     42  C   UNL     1       8.508   2.554  24.635  0.00  0.00    +0.000 C 
ATOM     43  C   UNL     1       6.916   4.375  23.871  0.00  0.00    +0.000 C 
ATOM     44  C   UNL     1       7.147   3.128  24.674  0.00  0.00    +0.000 C 
ATOM     45  C   UNL     1       8.059   4.749  22.978  0.00  0.00    +0.000 C 
BRANCH  43  46
ATOM     46  O   UNL     1       5.796   4.180  23.035  0.00  0.00    +0.000 OA
ATOM     47  H   UNL     1       8.098   0.241  23.158  0.00  0.00    +0.000 HD
ENDBRANCH  43  46
ENDBRANCH  38  41
BRANCH  38  48
ATOM     48  O   UNL     1      11.319   2.348  25.055  0.00  0.00    +0.000 OA
ATOM     49  H   UNL     1       9.028   2.767  20.638  0.00  0.00    +0.000 HD
ENDBRANCH  38  48
ENDBRANCH  37  38
ENDBRANCH  27  37
ENDBRANCH   3  28
TORSDOF 13
ENDMDL
MODEL 7
REMARK minimizedAffinity -7.57134056
REMARK minimizedRMSD -1
REMARK  Name = 88452727
REMARK  14 active torsions:
REMARK  status: ('A' for Active; 'I' for Inactive)
REMARK    1  A    between atoms: S_2  and  C_25
REMARK    2  A    between atoms: S_2  and  C_29
REMARK    3  A    between atoms: O_5  and  C_26
REMARK    4  A    between atoms: O_8  and  N_14
REMARK    5  A    between atoms: O_8  and  C_37
REMARK    6  A    between atoms: O_9  and  C_37
REMARK    7  A    between atoms: O_10  and  C_41
REMARK    8  A    between atoms: N_13  and  CA_20
REMARK    9  A    between atoms: N_16  and  C_38
REMARK   10  A    between atoms: CA_22  and  C_26
REMARK   11  A    between atoms: C_23  and  C_25
REMARK   12  A    between atoms: C_27  and  C_28
REMARK   13  A    between atoms: C_28  and  C_30
REMARK   14  A    between atoms: C_37  and  C_39
REMARK                            x       y       z     vdW  Elec       q    Type
REMARK                         _______ _______ _______ _____ _____    ______ ____
ROOT
ATOM      1  O   UNL     1      12.501   3.719  25.430  0.00  0.00    +0.000 OA
ATOM      2  N   UNL     1      12.683   5.402  23.803  0.00  0.00    +0.000 N 
ATOM      3  C   UNL     1      12.249   4.197  24.335  0.00  0.00    +0.000 C 
ATOM      4  H   UNL     1      10.818   7.894  24.473  0.00  0.00    +0.000 HD
ENDROOT
BRANCH   2   9
ATOM      5  S   UNL     1      15.695   4.981  23.110  0.00  0.00    +0.000 S 
ATOM      6  O   UNL     1      12.888   8.651  23.690  0.00  0.00    +0.000 OA
ATOM      7  N   UNL     1      14.936   7.491  23.545  0.00  0.00    +0.000 N 
ATOM      8  C   UNL     1      15.080   6.233  24.261  0.00  0.00    +0.000 C 
ATOM      9  CA  UNL     1      13.556   6.318  24.527  0.00  0.00    +0.000 C 
ATOM     10  C   UNL     1      13.651   7.732  23.885  0.00  0.00    +0.000 C 
ATOM     11  CA  UNL     1      15.923   8.061  22.808  0.00  0.00    +0.000 C 
ATOM     12  C   UNL     1      17.035   7.373  22.456  0.00  0.00    +0.000 C 
ATOM     13  C   UNL     1      17.236   5.891  22.760  0.00  0.00    +0.000 C 
BRANCH  11  15
ATOM     14  OXT UNL     1      15.585   9.772  21.192  0.00  0.00    +0.000 OA
ATOM     15  C   UNL     1      15.704   9.444  22.355  0.00  0.00    +0.000 C 
BRANCH  15  16
ATOM     16  O   UNL     1      15.660  10.262  23.425  0.00  0.00    +0.000 OA
ATOM     17  H   UNL     1      14.218   6.940  21.597  0.00  0.00    +0.000 HD
ENDBRANCH  15  16
ENDBRANCH  11  15
BRANCH  12  18
ATOM     18  C   UNL     1      18.209   7.962  21.712  0.00  0.00    +0.000 C 
BRANCH  18  19
ATOM     19  S   UNL     1      18.078   7.546  19.965  0.00  0.00    +0.000 S 
BRANCH  19  21
ATOM     20  N   UNL     1      22.179   8.669  18.423  0.00  0.00    +0.000 N 
ATOM     21  C   UNL     1      19.704   7.990  19.355  0.00  0.00    +0.000 A 
ATOM     22  C   UNL     1      20.039   7.747  18.027  0.00  0.00    +0.000 A 
ATOM     23  C   UNL     1      20.632   8.580  20.208  0.00  0.00    +0.000 A 
ATOM     24  C   UNL     1      21.304   8.103  17.580  0.00  0.00    +0.000 A 
ATOM     25  C   UNL     1      21.883   8.915  19.707  0.00  0.00    +0.000 A 
ATOM     26  C   UNL     1      23.502   9.031  17.925  0.00  0.00    +0.000 C 
ENDBRANCH  19  21
ENDBRANCH  18  19
ENDBRANCH  12  18
ENDBRANCH   2   9
BRANCH   3  28
ATOM     27  N   UNL     1      11.881   2.572  22.562  0.00  0.00    +0.000 NA
ATOM     28  C   UNL     1      11.363   3.419  23.399  0.00  0.00    +0.000 C 
BRANCH  28  32
ATOM     29  S   UNL     1       7.553   4.539  23.088  0.00  0.00    +0.000 S 
ATOM     30  N   UNL     1       9.102   2.826  24.250  0.00  0.00    +0.000 NA
ATOM     31  N   UNL     1       6.806   2.629  24.783  0.00  0.00    +0.000 N 
ATOM     32  C   UNL     1       9.892   3.633  23.457  0.00  0.00    +0.000 A 
ATOM     33  C   UNL     1       9.232   4.618  22.752  0.00  0.00    +0.000 A 
ATOM     34  C   UNL     1       7.849   3.211  24.134  0.00  0.00    +0.000 A 
ATOM     35  H   UNL     1      14.761   0.615  21.963  0.00  0.00    +0.000 HD
ATOM     36  H   UNL     1      14.761   0.615  21.963  0.00  0.00    +0.000 HD
ENDBRANCH  28  32
BRANCH  27  37
ATOM     37  O   UNL     1      13.278   2.518  22.675  0.00  0.00    +0.000 OA
BRANCH  37  38
ATOM     38  C   UNL     1      13.670   1.155  22.822  0.00  0.00    +0.000 C 
BRANCH  38  41
ATOM     39  O   UNL     1      15.206   1.524  18.287  0.00  0.00    +0.000 OA
ATOM     40  N   UNL     1      13.590  -0.719  21.314  0.00  0.00    +0.000 NA
ATOM     41  C   UNL     1      13.960   0.598  21.469  0.00  0.00    +0.000 C 
ATOM     42  C   UNL     1      14.525   1.377  20.533  0.00  0.00    +0.000 C 
ATOM     43  C   UNL     1      14.539  -0.661  19.024  0.00  0.00    +0.000 C 
ATOM     44  C   UNL     1      14.795   0.809  19.196  0.00  0.00    +0.000 C 
ATOM     45  C   UNL     1      13.850  -1.303  20.187  0.00  0.00    +0.000 C 
BRANCH  43  46
ATOM     46  O   UNL     1      13.702  -0.850  17.903  0.00  0.00    +0.000 OA
ATOM     47  H   UNL     1      12.272   2.921  20.039  0.00  0.00    +0.000 HD
ENDBRANCH  43  46
ENDBRANCH  38  41
BRANCH  38  48
ATOM     48  O   UNL     1      12.667   0.382  23.474  0.00  0.00    +0.000 OA
ATOM     49  H   UNL     1      16.395   2.641  21.037  0.00  0.00    +0.000 HD
ENDBRANCH  38  48
ENDBRANCH  37  38
ENDBRANCH  27  37
ENDBRANCH   3  28
TORSDOF 13
ENDMDL
MODEL 8
REMARK minimizedAffinity -7.45574522
REMARK minimizedRMSD -1
REMARK  Name = 88452727
REMARK  14 active torsions:
REMARK  status: ('A' for Active; 'I' for Inactive)
REMARK    1  A    between atoms: S_2  and  C_25
REMARK    2  A    between atoms: S_2  and  C_29
REMARK    3  A    between atoms: O_5  and  C_26
REMARK    4  A    between atoms: O_8  and  N_14
REMARK    5  A    between atoms: O_8  and  C_37
REMARK    6  A    between atoms: O_9  and  C_37
REMARK    7  A    between atoms: O_10  and  C_41
REMARK    8  A    between atoms: N_13  and  CA_20
REMARK    9  A    between atoms: N_16  and  C_38
REMARK   10  A    between atoms: CA_22  and  C_26
REMARK   11  A    between atoms: C_23  and  C_25
REMARK   12  A    between atoms: C_27  and  C_28
REMARK   13  A    between atoms: C_28  and  C_30
REMARK   14  A    between atoms: C_37  and  C_39
REMARK                            x       y       z     vdW  Elec       q    Type
REMARK                         _______ _______ _______ _____ _____    ______ ____
ROOT
ATOM      1  O   UNL     1      17.916   5.704  23.685  0.00  0.00    +0.000 OA
ATOM      2  N   UNL     1      17.577   5.661  21.361  0.00  0.00    +0.000 N 
ATOM      3  C   UNL     1      17.213   5.806  22.692  0.00  0.00    +0.000 C 
ATOM      4  H   UNL     1      18.606   8.335  19.972  0.00  0.00    +0.000 HD
ENDROOT
BRANCH   2   9
ATOM      5  S   UNL     1      17.819   2.806  20.129  0.00  0.00    +0.000 S 
ATOM      6  O   UNL     1      19.454   7.039  19.084  0.00  0.00    +0.000 OA
ATOM      7  N   UNL     1      19.352   4.683  19.038  0.00  0.00    +0.000 N 
ATOM      8  C   UNL     1      19.198   3.965  20.293  0.00  0.00    +0.000 C 
ATOM      9  CA  UNL     1      18.937   5.347  20.944  0.00  0.00    +0.000 C 
ATOM     10  C   UNL     1      19.317   5.932  19.553  0.00  0.00    +0.000 C 
ATOM     11  CA  UNL     1      19.465   4.080  17.828  0.00  0.00    +0.000 C 
ATOM     12  C   UNL     1      19.174   2.768  17.658  0.00  0.00    +0.000 C 
ATOM     13  C   UNL     1      18.603   1.886  18.763  0.00  0.00    +0.000 C 
BRANCH  11  15
ATOM     14  OXT UNL     1      19.083   5.521  15.976  0.00  0.00    +0.000 OA
ATOM     15  C   UNL     1      19.863   4.929  16.693  0.00  0.00    +0.000 C 
BRANCH  15  16
ATOM     16  O   UNL     1      21.206   4.934  16.589  0.00  0.00    +0.000 OA
ATOM     17  H   UNL     1      17.955   5.533  18.939  0.00  0.00    +0.000 HD
ENDBRANCH  15  16
ENDBRANCH  11  15
BRANCH  12  18
ATOM     18  C   UNL     1      19.356   2.009  16.365  0.00  0.00    +0.000 C 
BRANCH  18  19
ATOM     19  S   UNL     1      21.045   1.397  16.266  0.00  0.00    +0.000 S 
BRANCH  19  21
ATOM     20  N   UNL     1      22.245   2.625  12.081  0.00  0.00    +0.000 N 
ATOM     21  C   UNL     1      21.520   1.885  14.607  0.00  0.00    +0.000 A 
ATOM     22  C   UNL     1      22.825   2.289  14.347  0.00  0.00    +0.000 A 
ATOM     23  C   UNL     1      20.584   1.859  13.577  0.00  0.00    +0.000 A 
ATOM     24  C   UNL     1      23.166   2.660  13.054  0.00  0.00    +0.000 A 
ATOM     25  C   UNL     1      20.981   2.240  12.303  0.00  0.00    +0.000 A 
ATOM     26  C   UNL     1      22.633   3.022  10.731  0.00  0.00    +0.000 C 
ENDBRANCH  19  21
ENDBRANCH  18  19
ENDBRANCH  12  18
ENDBRANCH   2   9
BRANCH   3  28
ATOM     27  N   UNL     1      15.347   7.357  22.886  0.00  0.00    +0.000 NA
ATOM     28  C   UNL     1      15.752   6.122  22.877  0.00  0.00    +0.000 C 
BRANCH  28  32
ATOM     29  S   UNL     1      13.731   2.699  23.118  0.00  0.00    +0.000 S 
ATOM     30  N   UNL     1      13.486   5.254  23.421  0.00  0.00    +0.000 NA
ATOM     31  N   UNL     1      11.526   3.999  23.842  0.00  0.00    +0.000 N 
ATOM     32  C   UNL     1      14.789   5.002  23.041  0.00  0.00    +0.000 A 
ATOM     33  C   UNL     1      15.110   3.677  22.831  0.00  0.00    +0.000 A 
ATOM     34  C   UNL     1      12.835   4.113  23.495  0.00  0.00    +0.000 A 
ATOM     35  H   UNL     1      18.219   9.388  25.052  0.00  0.00    +0.000 HD
ATOM     36  H   UNL     1      18.219   9.388  25.052  0.00  0.00    +0.000 HD
ENDBRANCH  28  32
BRANCH  27  37
ATOM     37  O   UNL     1      16.411   8.254  22.710  0.00  0.00    +0.000 OA
BRANCH  37  38
ATOM     38  C   UNL     1      15.917   9.424  22.063  0.00  0.00    +0.000 C 
BRANCH  38  41
ATOM     39  O   UNL     1      17.037  10.823  17.607  0.00  0.00    +0.000 OA
ATOM     40  N   UNL     1      18.205   9.741  21.384  0.00  0.00    +0.000 NA
ATOM     41  C   UNL     1      16.885   9.820  20.999  0.00  0.00    +0.000 C 
ATOM     42  C   UNL     1      16.434  10.201  19.793  0.00  0.00    +0.000 C 
ATOM     43  C   UNL     1      18.852  10.644  19.167  0.00  0.00    +0.000 C 
ATOM     44  C   UNL     1      17.411  10.580  18.751  0.00  0.00    +0.000 C 
ATOM     45  C   UNL     1      19.116  10.114  20.542  0.00  0.00    +0.000 C 
BRANCH  43  46
ATOM     46  O   UNL     1      19.619   9.861  18.278  0.00  0.00    +0.000 OA
ATOM     47  H   UNL     1      15.675   7.667  18.953  0.00  0.00    +0.000 HD
ENDBRANCH  43  46
ENDBRANCH  38  41
BRANCH  38  48
ATOM     48  O   UNL     1      15.722  10.496  22.981  0.00  0.00    +0.000 OA
ATOM     49  H   UNL     1      16.379   7.097  19.382  0.00  0.00    +0.000 HD
ENDBRANCH  38  48
ENDBRANCH  37  38
ENDBRANCH  27  37
ENDBRANCH   3  28
TORSDOF 13
ENDMDL
MODEL 9
REMARK minimizedAffinity -7.45258951
REMARK minimizedRMSD -1
REMARK  Name = 88452727
REMARK  14 active torsions:
REMARK  status: ('A' for Active; 'I' for Inactive)
REMARK    1  A    between atoms: S_2  and  C_25
REMARK    2  A    between atoms: S_2  and  C_29
REMARK    3  A    between atoms: O_5  and  C_26
REMARK    4  A    between atoms: O_8  and  N_14
REMARK    5  A    between atoms: O_8  and  C_37
REMARK    6  A    between atoms: O_9  and  C_37
REMARK    7  A    between atoms: O_10  and  C_41
REMARK    8  A    between atoms: N_13  and  CA_20
REMARK    9  A    between atoms: N_16  and  C_38
REMARK   10  A    between atoms: CA_22  and  C_26
REMARK   11  A    between atoms: C_23  and  C_25
REMARK   12  A    between atoms: C_27  and  C_28
REMARK   13  A    between atoms: C_28  and  C_30
REMARK   14  A    between atoms: C_37  and  C_39
REMARK                            x       y       z     vdW  Elec       q    Type
REMARK                         _______ _______ _______ _____ _____    ______ ____
ROOT
ATOM      1  O   UNL     1      22.418   8.248  15.472  0.00  0.00    +0.000 OA
ATOM      2  N   UNL     1      21.733   7.252  17.486  0.00  0.00    +0.000 N 
ATOM      3  C   UNL     1      22.642   7.761  16.569  0.00  0.00    +0.000 C 
ATOM      4  H   UNL     1      20.567   9.402  19.525  0.00  0.00    +0.000 HD
ENDROOT
BRANCH   2   9
ATOM      5  S   UNL     1      20.091   6.836  20.105  0.00  0.00    +0.000 S 
ATOM      6  O   UNL     1      19.750   9.575  16.354  0.00  0.00    +0.000 OA
ATOM      7  N   UNL     1      19.011   8.454  18.293  0.00  0.00    +0.000 N 
ATOM      8  C   UNL     1      19.357   7.053  18.466  0.00  0.00    +0.000 C 
ATOM      9  CA  UNL     1      20.296   7.231  17.246  0.00  0.00    +0.000 C 
ATOM     10  C   UNL     1      19.659   8.645  17.123  0.00  0.00    +0.000 C 
ATOM     11  CA  UNL     1      18.263   9.165  19.175  0.00  0.00    +0.000 C 
ATOM     12  C   UNL     1      18.002   8.702  20.421  0.00  0.00    +0.000 C 
ATOM     13  C   UNL     1      18.597   7.413  20.978  0.00  0.00    +0.000 C 
BRANCH  11  15
ATOM     14  OXT UNL     1      16.730  10.694  18.193  0.00  0.00    +0.000 OA
ATOM     15  C   UNL     1      17.796  10.490  18.738  0.00  0.00    +0.000 C 
BRANCH  15  16
ATOM     16  O   UNL     1      18.730  11.414  19.037  0.00  0.00    +0.000 OA
ATOM     17  H   UNL     1      16.349   8.405  20.353  0.00  0.00    +0.000 HD
ENDBRANCH  15  16
ENDBRANCH  11  15
BRANCH  12  18
ATOM     18  C   UNL     1      17.110   9.394  21.424  0.00  0.00    +0.000 C 
BRANCH  18  19
ATOM     19  S   UNL     1      15.389   9.036  21.039  0.00  0.00    +0.000 S 
BRANCH  19  21
ATOM     20  N   UNL     1      14.033   6.859  24.765  0.00  0.00    +0.000 N 
ATOM     21  C   UNL     1      14.850   8.172  22.515  0.00  0.00    +0.000 A 
ATOM     22  C   UNL     1      15.671   7.212  23.098  0.00  0.00    +0.000 A 
ATOM     23  C   UNL     1      13.612   8.462  23.080  0.00  0.00    +0.000 A 
ATOM     24  C   UNL     1      15.230   6.560  24.241  0.00  0.00    +0.000 A 
ATOM     25  C   UNL     1      13.223   7.779  24.224  0.00  0.00    +0.000 A 
ATOM     26  C   UNL     1      13.597   6.156  25.967  0.00  0.00    +0.000 C 
ENDBRANCH  19  21
ENDBRANCH  18  19
ENDBRANCH  12  18
ENDBRANCH   2   9
BRANCH   3  28
ATOM     27  N   UNL     1      24.879   6.805  16.498  0.00  0.00    +0.000 NA
ATOM     28  C   UNL     1      24.070   7.669  17.036  0.00  0.00    +0.000 C 
BRANCH  28  32
ATOM     29  S   UNL     1      24.613  10.169  20.088  0.00  0.00    +0.000 S 
ATOM     30  N   UNL     1      25.880   8.876  18.243  0.00  0.00    +0.000 NA
ATOM     31  N   UNL     1      27.239  10.192  19.662  0.00  0.00    +0.000 N 
ATOM     32  C   UNL     1      24.537   8.585  18.111  0.00  0.00    +0.000 A 
ATOM     33  C   UNL     1      23.695   9.192  19.019  0.00  0.00    +0.000 A 
ATOM     34  C   UNL     1      26.038   9.702  19.255  0.00  0.00    +0.000 A 
ATOM     35  H   UNL     1      24.006   3.295  15.506  0.00  0.00    +0.000 HD
ATOM     36  H   UNL     1      24.006   3.295  15.506  0.00  0.00    +0.000 HD
ENDBRANCH  28  32
BRANCH  27  37
ATOM     37  O   UNL     1      24.243   6.048  15.504  0.00  0.00    +0.000 OA
BRANCH  37  38
ATOM     38  C   UNL     1      24.365   4.666  15.837  0.00  0.00    +0.000 C 
BRANCH  38  41
ATOM     39  O   UNL     1      22.483   1.403  12.858  0.00  0.00    +0.000 OA
ATOM     40  N   UNL     1      21.984   4.370  15.643  0.00  0.00    +0.000 NA
ATOM     41  C   UNL     1      23.220   3.930  15.226  0.00  0.00    +0.000 C 
ATOM     42  C   UNL     1      23.454   2.942  14.347  0.00  0.00    +0.000 C 
ATOM     43  C   UNL     1      20.945   2.581  14.275  0.00  0.00    +0.000 C 
ATOM     44  C   UNL     1      22.307   2.232  13.747  0.00  0.00    +0.000 C 
ATOM     45  C   UNL     1      20.932   3.755  15.204  0.00  0.00    +0.000 C 
BRANCH  43  46
ATOM     46  O   UNL     1      20.106   2.913  13.190  0.00  0.00    +0.000 OA
ATOM     47  H   UNL     1      24.247   4.591  12.260  0.00  0.00    +0.000 HD
ENDBRANCH  43  46
ENDBRANCH  38  41
BRANCH  38  48
ATOM     48  O   UNL     1      24.392   4.461  17.247  0.00  0.00    +0.000 OA
ATOM     49  H   UNL     1      24.195   4.671  12.261  0.00  0.00    +0.000 HD
ENDBRANCH  38  48
ENDBRANCH  37  38
ENDBRANCH  27  37
ENDBRANCH   3  28
TORSDOF 13
ENDMDL
MODEL 10
REMARK minimizedAffinity -7.29415655
REMARK minimizedRMSD -1
REMARK  Name = 88452727
REMARK  14 active torsions:
REMARK  status: ('A' for Active; 'I' for Inactive)
REMARK    1  A    between atoms: S_2  and  C_25
REMARK    2  A    between atoms: S_2  and  C_29
REMARK    3  A    between atoms: O_5  and  C_26
REMARK    4  A    between atoms: O_8  and  N_14
REMARK    5  A    between atoms: O_8  and  C_37
REMARK    6  A    between atoms: O_9  and  C_37
REMARK    7  A    between atoms: O_10  and  C_41
REMARK    8  A    between atoms: N_13  and  CA_20
REMARK    9  A    between atoms: N_16  and  C_38
REMARK   10  A    between atoms: CA_22  and  C_26
REMARK   11  A    between atoms: C_23  and  C_25
REMARK   12  A    between atoms: C_27  and  C_28
REMARK   13  A    between atoms: C_28  and  C_30
REMARK   14  A    between atoms: C_37  and  C_39
REMARK                            x       y       z     vdW  Elec       q    Type
REMARK                         _______ _______ _______ _____ _____    ______ ____
ROOT
ATOM      1  O   UNL     1      18.982   7.240  16.746  0.00  0.00    +0.000 OA
ATOM      2  N   UNL     1      19.216   6.454  18.946  0.00  0.00    +0.000 N 
ATOM      3  C   UNL     1      19.323   7.371  17.911  0.00  0.00    +0.000 C 
ATOM      4  H   UNL     1      16.460   6.570  20.537  0.00  0.00    +0.000 HD
ENDROOT
BRANCH   2   9
ATOM      5  S   UNL     1      20.847   4.247  20.428  0.00  0.00    +0.000 S 
ATOM      6  O   UNL     1      16.334   5.257  19.880  0.00  0.00    +0.000 OA
ATOM      7  N   UNL     1      18.210   3.918  20.381  0.00  0.00    +0.000 N 
ATOM      8  C   UNL     1      19.344   3.934  19.472  0.00  0.00    +0.000 C 
ATOM      9  CA  UNL     1      18.645   5.125  18.770  0.00  0.00    +0.000 C 
ATOM     10  C   UNL     1      17.453   4.823  19.723  0.00  0.00    +0.000 C 
ATOM     11  CA  UNL     1      18.148   3.157  21.504  0.00  0.00    +0.000 C 
ATOM     12  C   UNL     1      19.247   2.552  22.013  0.00  0.00    +0.000 C 
ATOM     13  C   UNL     1      20.650   2.747  21.448  0.00  0.00    +0.000 C 
BRANCH  11  15
ATOM     14  OXT UNL     1      16.532   3.711  23.157  0.00  0.00    +0.000 OA
ATOM     15  C   UNL     1      16.843   3.066  22.177  0.00  0.00    +0.000 C 
BRANCH  15  16
ATOM     16  O   UNL     1      16.071   2.166  21.536  0.00  0.00    +0.000 OA
ATOM     17  H   UNL     1      18.353   5.510  21.286  0.00  0.00    +0.000 HD
ENDBRANCH  15  16
ENDBRANCH  11  15
BRANCH  12  18
ATOM     18  C   UNL     1      19.241   1.624  23.205  0.00  0.00    +0.000 C 
BRANCH  18  19
ATOM     19  S   UNL     1      20.741   1.880  24.167  0.00  0.00    +0.000 S 
BRANCH  19  21
ATOM     20  N   UNL     1      19.095   3.461  28.072  0.00  0.00    +0.000 N 
ATOM     21  C   UNL     1      20.087   2.507  25.715  0.00  0.00    +0.000 A 
ATOM     22  C   UNL     1      20.277   1.789  26.891  0.00  0.00    +0.000 A 
ATOM     23  C   UNL     1      19.391   3.712  25.741  0.00  0.00    +0.000 A 
ATOM     24  C   UNL     1      19.761   2.298  28.075  0.00  0.00    +0.000 A 
ATOM     25  C   UNL     1      18.899   4.173  26.954  0.00  0.00    +0.000 A 
ATOM     26  C   UNL     1      18.564   3.970  29.332  0.00  0.00    +0.000 C 
ENDBRANCH  19  21
ENDBRANCH  18  19
ENDBRANCH  12  18
ENDBRANCH   2   9
BRANCH   3  28
ATOM     27  N   UNL     1      19.206   9.670  18.701  0.00  0.00    +0.000 NA
ATOM     28  C   UNL     1      19.952   8.672  18.332  0.00  0.00    +0.000 C 
BRANCH  28  32
ATOM     29  S   UNL     1      23.869   8.779  17.616  0.00  0.00    +0.000 S 
ATOM     30  N   UNL     1      22.108   9.171  19.468  0.00  0.00    +0.000 NA
ATOM     31  N   UNL     1      24.352   9.534  20.121  0.00  0.00    +0.000 N 
ATOM     32  C   UNL     1      21.435   8.790  18.325  0.00  0.00    +0.000 A 
ATOM     33  C   UNL     1      22.219   8.535  17.219  0.00  0.00    +0.000 A 
ATOM     34  C   UNL     1      23.398   9.199  19.212  0.00  0.00    +0.000 A 
ATOM     35  H   UNL     1      15.938  10.977  18.565  0.00  0.00    +0.000 HD
ATOM     36  H   UNL     1      15.938  10.977  18.565  0.00  0.00    +0.000 HD
ENDBRANCH  28  32
BRANCH  27  37
ATOM     37  O   UNL     1      17.842   9.348  18.641  0.00  0.00    +0.000 OA
BRANCH  37  38
ATOM     38  C   UNL     1      17.146  10.134  19.606  0.00  0.00    +0.000 C 
BRANCH  38  41
ATOM     39  O   UNL     1      17.892   6.652  22.829  0.00  0.00    +0.000 OA
ATOM     40  N   UNL     1      15.388   9.378  21.068  0.00  0.00    +0.000 NA
ATOM     41  C   UNL     1      16.714   9.240  20.720  0.00  0.00    +0.000 C 
ATOM     42  C   UNL     1      17.595   8.395  21.279  0.00  0.00    +0.000 C 
ATOM     43  C   UNL     1      15.746   7.726  22.882  0.00  0.00    +0.000 C 
ATOM     44  C   UNL     1      17.143   7.513  22.374  0.00  0.00    +0.000 C 
ATOM     45  C   UNL     1      14.936   8.680  22.060  0.00  0.00    +0.000 C 
BRANCH  43  46
ATOM     46  O   UNL     1      15.061   6.492  22.865  0.00  0.00    +0.000 OA
ATOM     47  H   UNL     1      17.698   6.627  19.142  0.00  0.00    +0.000 HD
ENDBRANCH  43  46
ENDBRANCH  38  41
BRANCH  38  48
ATOM     48  O   UNL     1      16.022  10.799  19.037  0.00  0.00    +0.000 OA
ATOM     49  H   UNL     1      19.752   8.569  21.498  0.00  0.00    +0.000 HD
ENDBRANCH  38  48
ENDBRANCH  37  38
ENDBRANCH  27  37
ENDBRANCH   3  28
TORSDOF 13
ENDMDL
MODEL 11
REMARK minimizedAffinity -7.28055906
REMARK minimizedRMSD -1
REMARK  Name = 88452727
REMARK  14 active torsions:
REMARK  status: ('A' for Active; 'I' for Inactive)
REMARK    1  A    between atoms: S_2  and  C_25
REMARK    2  A    between atoms: S_2  and  C_29
REMARK    3  A    between atoms: O_5  and  C_26
REMARK    4  A    between atoms: O_8  and  N_14
REMARK    5  A    between atoms: O_8  and  C_37
REMARK    6  A    between atoms: O_9  and  C_37
REMARK    7  A    between atoms: O_10  and  C_41
REMARK    8  A    between atoms: N_13  and  CA_20
REMARK    9  A    between atoms: N_16  and  C_38
REMARK   10  A    between atoms: CA_22  and  C_26
REMARK   11  A    between atoms: C_23  and  C_25
REMARK   12  A    between atoms: C_27  and  C_28
REMARK   13  A    between atoms: C_28  and  C_30
REMARK   14  A    between atoms: C_37  and  C_39
REMARK                            x       y       z     vdW  Elec       q    Type
REMARK                         _______ _______ _______ _____ _____    ______ ____
ROOT
ATOM      1  O   UNL     1      19.022   8.832  17.115  0.00  0.00    +0.000 OA
ATOM      2  N   UNL     1      19.654   6.745  17.986  0.00  0.00    +0.000 N 
ATOM      3  C   UNL     1      19.564   8.129  17.952  0.00  0.00    +0.000 C 
ATOM      4  H   UNL     1      17.226   5.297  19.451  0.00  0.00    +0.000 HD
ENDROOT
BRANCH   2   9
ATOM      5  S   UNL     1      21.817   5.463  16.141  0.00  0.00    +0.000 S 
ATOM      6  O   UNL     1      17.940   3.989  18.258  0.00  0.00    +0.000 OA
ATOM      7  N   UNL     1      19.705   3.946  16.694  0.00  0.00    +0.000 N 
ATOM      8  C   UNL     1      20.039   5.170  15.983  0.00  0.00    +0.000 C 
ATOM      9  CA  UNL     1      19.074   5.890  16.959  0.00  0.00    +0.000 C 
ATOM     10  C   UNL     1      18.718   4.461  17.460  0.00  0.00    +0.000 C 
ATOM     11  CA  UNL     1      20.335   2.760  16.500  0.00  0.00    +0.000 C 
ATOM     12  C   UNL     1      21.506   2.680  15.823  0.00  0.00    +0.000 C 
ATOM     13  C   UNL     1      22.266   3.900  15.314  0.00  0.00    +0.000 C 
BRANCH  11  15
ATOM     14  OXT UNL     1      18.876   0.885  16.571  0.00  0.00    +0.000 OA
ATOM     15  C   UNL     1      19.721   1.570  17.109  0.00  0.00    +0.000 C 
BRANCH  15  16
ATOM     16  O   UNL     1      20.243   1.377  18.337  0.00  0.00    +0.000 OA
ATOM     17  H   UNL     1      20.925   1.893  14.372  0.00  0.00    +0.000 HD
ENDBRANCH  15  16
ENDBRANCH  11  15
BRANCH  12  18
ATOM     18  C   UNL     1      22.221   1.390  15.496  0.00  0.00    +0.000 C 
BRANCH  18  19
ATOM     19  S   UNL     1      23.305   1.653  14.083  0.00  0.00    +0.000 S 
BRANCH  19  21
ATOM     20  N   UNL     1      20.454   1.130  10.610  0.00  0.00    +0.000 N 
ATOM     21  C   UNL     1      22.176   1.445  12.705  0.00  0.00    +0.000 A 
ATOM     22  C   UNL     1      21.525   0.231  12.515  0.00  0.00    +0.000 A 
ATOM     23  C   UNL     1      21.949   2.500  11.825  0.00  0.00    +0.000 A 
ATOM     24  C   UNL     1      20.656   0.099  11.442  0.00  0.00    +0.000 A 
ATOM     25  C   UNL     1      21.068   2.311  10.770  0.00  0.00    +0.000 A 
ATOM     26  C   UNL     1      19.535   0.960   9.489  0.00  0.00    +0.000 C 
ENDBRANCH  19  21
ENDBRANCH  18  19
ENDBRANCH  12  18
ENDBRANCH   2   9
BRANCH   3  28
ATOM     27  N   UNL     1      19.549   9.197  20.139  0.00  0.00    +0.000 NA
ATOM     28  C   UNL     1      20.245   8.797  19.118  0.00  0.00    +0.000 C 
BRANCH  28  32
ATOM     29  S   UNL     1      24.137   9.373  19.738  0.00  0.00    +0.000 S 
ATOM     30  N   UNL     1      22.397   8.932  17.877  0.00  0.00    +0.000 NA
ATOM     31  N   UNL     1      24.633   9.139  17.135  0.00  0.00    +0.000 N 
ATOM     32  C   UNL     1      21.720   8.982  19.080  0.00  0.00    +0.000 A 
ATOM     33  C   UNL     1      22.493   9.212  20.198  0.00  0.00    +0.000 A 
ATOM     34  C   UNL     1      23.679   9.125  18.103  0.00  0.00    +0.000 A 
ATOM     35  H   UNL     1      16.758   5.793  18.576  0.00  0.00    +0.000 HD
ATOM     36  H   UNL     1      16.758   5.793  18.576  0.00  0.00    +0.000 HD
ENDBRANCH  28  32
BRANCH  27  37
ATOM     37  O   UNL     1      18.183   8.923  19.976  0.00  0.00    +0.000 OA
BRANCH  37  38
ATOM     38  C   UNL     1      17.442   9.768  20.854  0.00  0.00    +0.000 C 
BRANCH  38  41
ATOM     39  O   UNL     1      16.776   5.780  23.446  0.00  0.00    +0.000 OA
ATOM     40  N   UNL     1      15.431   9.422  22.132  0.00  0.00    +0.000 NA
ATOM     41  C   UNL     1      16.661   8.907  21.791  0.00  0.00    +0.000 C 
ATOM     42  C   UNL     1      17.176   7.741  22.212  0.00  0.00    +0.000 C 
ATOM     43  C   UNL     1      15.098   7.484  23.642  0.00  0.00    +0.000 C 
ATOM     44  C   UNL     1      16.383   6.900  23.132  0.00  0.00    +0.000 C 
ATOM     45  C   UNL     1      14.704   8.768  22.981  0.00  0.00    +0.000 C 
BRANCH  43  46
ATOM     46  O   UNL     1      14.052   6.567  23.402  0.00  0.00    +0.000 OA
ATOM     47  H   UNL     1      16.858   6.395  19.807  0.00  0.00    +0.000 HD
ENDBRANCH  43  46
ENDBRANCH  38  41
BRANCH  38  48
ATOM     48  O   UNL     1      16.573  10.642  20.141  0.00  0.00    +0.000 OA
ATOM     49  H   UNL     1      19.340   7.690  23.068  0.00  0.00    +0.000 HD
ENDBRANCH  38  48
ENDBRANCH  37  38
ENDBRANCH  27  37
ENDBRANCH   3  28
TORSDOF 13
ENDMDL
MODEL 12
REMARK minimizedAffinity -7.22442293
REMARK minimizedRMSD -1
REMARK  Name = 88452727
REMARK  14 active torsions:
REMARK  status: ('A' for Active; 'I' for Inactive)
REMARK    1  A    between atoms: S_2  and  C_25
REMARK    2  A    between atoms: S_2  and  C_29
REMARK    3  A    between atoms: O_5  and  C_26
REMARK    4  A    between atoms: O_8  and  N_14
REMARK    5  A    between atoms: O_8  and  C_37
REMARK    6  A    between atoms: O_9  and  C_37
REMARK    7  A    between atoms: O_10  and  C_41
REMARK    8  A    between atoms: N_13  and  CA_20
REMARK    9  A    between atoms: N_16  and  C_38
REMARK   10  A    between atoms: CA_22  and  C_26
REMARK   11  A    between atoms: C_23  and  C_25
REMARK   12  A    between atoms: C_27  and  C_28
REMARK   13  A    between atoms: C_28  and  C_30
REMARK   14  A    between atoms: C_37  and  C_39
REMARK                            x       y       z     vdW  Elec       q    Type
REMARK                         _______ _______ _______ _____ _____    ______ ____
ROOT
ATOM      1  O   UNL     1      19.357   7.340  22.109  0.00  0.00    +0.000 OA
ATOM      2  N   UNL     1      17.908   6.525  20.450  0.00  0.00    +0.000 N 
ATOM      3  C   UNL     1      18.332   7.391  21.447  0.00  0.00    +0.000 C 
ATOM      4  H   UNL     1      18.929   7.271  17.527  0.00  0.00    +0.000 HD
ENDROOT
BRANCH   2   9
ATOM      5  S   UNL     1      17.267   3.994  22.155  0.00  0.00    +0.000 S 
ATOM      6  O   UNL     1      17.904   4.894  17.631  0.00  0.00    +0.000 OA
ATOM      7  N   UNL     1      17.767   3.571  19.579  0.00  0.00    +0.000 N 
ATOM      8  C   UNL     1      18.444   4.026  20.782  0.00  0.00    +0.000 C 
ATOM      9  CA  UNL     1      18.680   5.362  20.033  0.00  0.00    +0.000 C 
ATOM     10  C   UNL     1      18.086   4.626  18.797  0.00  0.00    +0.000 C 
ATOM     11  CA  UNL     1      17.069   2.410  19.494  0.00  0.00    +0.000 C 
ATOM     12  C   UNL     1      16.720   1.708  20.598  0.00  0.00    +0.000 C 
ATOM     13  C   UNL     1      16.981   2.197  22.019  0.00  0.00    +0.000 C 
BRANCH  11  15
ATOM     14  OXT UNL     1      17.317   1.253  17.432  0.00  0.00    +0.000 OA
ATOM     15  C   UNL     1      16.657   1.976  18.150  0.00  0.00    +0.000 C 
BRANCH  15  16
ATOM     16  O   UNL     1      15.452   2.506  17.859  0.00  0.00    +0.000 OA
ATOM     17  H   UNL     1      17.700   0.328  20.440  0.00  0.00    +0.000 HD
ENDBRANCH  15  16
ENDBRANCH  11  15
BRANCH  12  18
ATOM     18  C   UNL     1      16.021   0.370  20.579  0.00  0.00    +0.000 C 
BRANCH  18  19
ATOM     19  S   UNL     1      15.371   0.014  22.219  0.00  0.00    +0.000 S 
BRANCH  19  21
ATOM     20  N   UNL     1      11.186   1.712  21.960  0.00  0.00    +0.000 N 
ATOM     21  C   UNL     1      13.712   0.688  22.116  0.00  0.00    +0.000 A 
ATOM     22  C   UNL     1      12.646  -0.137  21.772  0.00  0.00    +0.000 A 
ATOM     23  C   UNL     1      13.490   2.036  22.380  0.00  0.00    +0.000 A 
ATOM     24  C   UNL     1      11.373   0.410  21.701  0.00  0.00    +0.000 A 
ATOM     25  C   UNL     1      12.195   2.529  22.294  0.00  0.00    +0.000 A 
ATOM     26  C   UNL     1       9.836   2.259  21.876  0.00  0.00    +0.000 C 
ENDBRANCH  19  21
ENDBRANCH  18  19
ENDBRANCH  12  18
ENDBRANCH   2   9
BRANCH   3  28
ATOM     27  N   UNL     1      17.676   9.734  21.382  0.00  0.00    +0.000 NA
ATOM     28  C   UNL     1      17.365   8.515  21.708  0.00  0.00    +0.000 C 
BRANCH  28  32
ATOM     29  S   UNL     1      14.236   7.220  23.805  0.00  0.00    +0.000 S 
ATOM     30  N   UNL     1      14.905   8.833  21.898  0.00  0.00    +0.000 NA
ATOM     31  N   UNL     1      12.601   8.804  22.429  0.00  0.00    +0.000 N 
ATOM     32  C   UNL     1      16.054   8.204  22.337  0.00  0.00    +0.000 A 
ATOM     33  C   UNL     1      15.891   7.297  23.363  0.00  0.00    +0.000 A 
ATOM     34  C   UNL     1      13.884   8.392  22.602  0.00  0.00    +0.000 A 
ATOM     35  H   UNL     1      20.679  11.709  21.167  0.00  0.00    +0.000 HD
ATOM     36  H   UNL     1      20.679  11.709  21.167  0.00  0.00    +0.000 HD
ENDBRANCH  28  32
BRANCH  27  37
ATOM     37  O   UNL     1      18.949   9.807  20.800  0.00  0.00    +0.000 OA
BRANCH  37  38
ATOM     38  C   UNL     1      18.799  10.081  19.409  0.00  0.00    +0.000 C 
BRANCH  38  41
ATOM     39  O   UNL     1      20.722   7.998  15.533  0.00  0.00    +0.000 OA
ATOM     40  N   UNL     1      21.041   9.204  19.437  0.00  0.00    +0.000 NA
ATOM     41  C   UNL     1      19.915   9.418  18.673  0.00  0.00    +0.000 C 
ATOM     42  C   UNL     1      19.758   9.082  17.383  0.00  0.00    +0.000 C 
ATOM     43  C   UNL     1      22.167   8.291  17.426  0.00  0.00    +0.000 C 
ATOM     44  C   UNL     1      20.873   8.418  16.676  0.00  0.00    +0.000 C 
ATOM     45  C   UNL     1      22.080   8.680  18.868  0.00  0.00    +0.000 C 
BRANCH  43  46
ATOM     46  O   UNL     1      22.582   6.942  17.394  0.00  0.00    +0.000 OA
ATOM     47  H   UNL     1      18.041   6.951  17.845  0.00  0.00    +0.000 HD
ENDBRANCH  43  46
ENDBRANCH  38  41
BRANCH  38  48
ATOM     48  O   UNL     1      18.789  11.480  19.142  0.00  0.00    +0.000 OA
ATOM     49  H   UNL     1      18.911   6.506  19.567  0.00  0.00    +0.000 HD
ENDBRANCH  38  48
ENDBRANCH  37  38
ENDBRANCH  27  37
ENDBRANCH   3  28
TORSDOF 13
ENDMDL
MODEL 13
REMARK minimizedAffinity -7.21324015
REMARK minimizedRMSD -1
REMARK  Name = 88452727
REMARK  14 active torsions:
REMARK  status: ('A' for Active; 'I' for Inactive)
REMARK    1  A    between atoms: S_2  and  C_25
REMARK    2  A    between atoms: S_2  and  C_29
REMARK    3  A    between atoms: O_5  and  C_26
REMARK    4  A    between atoms: O_8  and  N_14
REMARK    5  A    between atoms: O_8  and  C_37
REMARK    6  A    between atoms: O_9  and  C_37
REMARK    7  A    between atoms: O_10  and  C_41
REMARK    8  A    between atoms: N_13  and  CA_20
REMARK    9  A    between atoms: N_16  and  C_38
REMARK   10  A    between atoms: CA_22  and  C_26
REMARK   11  A    between atoms: C_23  and  C_25
REMARK   12  A    between atoms: C_27  and  C_28
REMARK   13  A    between atoms: C_28  and  C_30
REMARK   14  A    between atoms: C_37  and  C_39
REMARK                            x       y       z     vdW  Elec       q    Type
REMARK                         _______ _______ _______ _____ _____    ______ ____
ROOT
ATOM      1  O   UNL     1      18.198   5.911  18.757  0.00  0.00    +0.000 OA
ATOM      2  N   UNL     1      17.669   5.811  21.043  0.00  0.00    +0.000 N 
ATOM      3  C   UNL     1      18.458   5.631  19.916  0.00  0.00    +0.000 C 
ATOM      4  H   UNL     1      18.000   8.646  22.453  0.00  0.00    +0.000 HD
ENDROOT
BRANCH   2   9
ATOM      5  S   UNL     1      15.429   3.742  21.701  0.00  0.00    +0.000 S 
ATOM      6  O   UNL     1      16.325   8.166  22.847  0.00  0.00    +0.000 OA
ATOM      7  N   UNL     1      15.019   6.223  22.563  0.00  0.00    +0.000 N 
ATOM      8  C   UNL     1      15.126   5.483  21.316  0.00  0.00    +0.000 C 
ATOM      9  CA  UNL     1      16.335   6.396  20.988  0.00  0.00    +0.000 C 
ATOM     10  C   UNL     1      15.937   7.171  22.277  0.00  0.00    +0.000 C 
ATOM     11  CA  UNL     1      14.189   5.877  23.581  0.00  0.00    +0.000 C 
ATOM     12  C   UNL     1      13.590   4.664  23.628  0.00  0.00    +0.000 C 
ATOM     13  C   UNL     1      13.865   3.553  22.620  0.00  0.00    +0.000 C 
BRANCH  11  15
ATOM     14  OXT UNL     1      14.574   6.798  25.739  0.00  0.00    +0.000 OA
ATOM     15  C   UNL     1      14.015   6.859  24.663  0.00  0.00    +0.000 C 
BRANCH  15  16
ATOM     16  O   UNL     1      13.151   7.814  24.265  0.00  0.00    +0.000 OA
ATOM     17  H   UNL     1      16.556   5.747  23.499  0.00  0.00    +0.000 HD
ENDBRANCH  15  16
ENDBRANCH  11  15
BRANCH  12  18
ATOM     18  C   UNL     1      12.592   4.240  24.680  0.00  0.00    +0.000 C 
BRANCH  18  19
ATOM     19  S   UNL     1      11.817   2.694  24.178  0.00  0.00    +0.000 S 
BRANCH  19  21
ATOM     20  N   UNL     1       7.528   3.967  23.517  0.00  0.00    +0.000 N 
ATOM     21  C   UNL     1      10.117   3.199  23.917  0.00  0.00    +0.000 A 
ATOM     22  C   UNL     1       9.827   4.250  23.053  0.00  0.00    +0.000 A 
ATOM     23  C   UNL     1       9.085   2.540  24.579  0.00  0.00    +0.000 A 
ATOM     24  C   UNL     1       8.502   4.619  22.868  0.00  0.00    +0.000 A 
ATOM     25  C   UNL     1       7.778   2.952  24.356  0.00  0.00    +0.000 A 
ATOM     26  C   UNL     1       6.144   4.379  23.304  0.00  0.00    +0.000 C 
ENDBRANCH  19  21
ENDBRANCH  18  19
ENDBRANCH  12  18
ENDBRANCH   2   9
BRANCH   3  28
ATOM     27  N   UNL     1      20.681   5.654  20.909  0.00  0.00    +0.000 NA
ATOM     28  C   UNL     1      19.792   5.002  20.220  0.00  0.00    +0.000 C 
BRANCH  28  32
ATOM     29  S   UNL     1      21.231   1.515  18.941  0.00  0.00    +0.000 S 
ATOM     30  N   UNL     1      19.026   2.763  19.452  0.00  0.00    +0.000 NA
ATOM     31  N   UNL     1      18.769   0.545  18.672  0.00  0.00    +0.000 N 
ATOM     32  C   UNL     1      20.068   3.626  19.727  0.00  0.00    +0.000 A 
ATOM     33  C   UNL     1      21.336   3.129  19.511  0.00  0.00    +0.000 A 
ATOM     34  C   UNL     1      19.521   1.619  19.031  0.00  0.00    +0.000 A 
ATOM     35  H   UNL     1      18.246   7.547  23.772  0.00  0.00    +0.000 HD
ATOM     36  H   UNL     1      18.246   7.547  23.772  0.00  0.00    +0.000 HD
ENDBRANCH  28  32
BRANCH  27  37
ATOM     37  O   UNL     1      20.219   6.925  21.280  0.00  0.00    +0.000 OA
BRANCH  37  38
ATOM     38  C   UNL     1      20.882   7.901  20.479  0.00  0.00    +0.000 C 
BRANCH  38  41
ATOM     39  O   UNL     1      18.766  10.246  16.861  0.00  0.00    +0.000 OA
ATOM     40  N   UNL     1      19.046   9.410  20.864  0.00  0.00    +0.000 NA
ATOM     41  C   UNL     1      19.856   8.826  19.916  0.00  0.00    +0.000 C 
ATOM     42  C   UNL     1      19.794   9.028  18.590  0.00  0.00    +0.000 C 
ATOM     43  C   UNL     1      17.781  10.505  19.034  0.00  0.00    +0.000 C 
ATOM     44  C   UNL     1      18.776   9.954  18.054  0.00  0.00    +0.000 C 
ATOM     45  C   UNL     1      18.092  10.189  20.464  0.00  0.00    +0.000 C 
BRANCH  43  46
ATOM     46  O   UNL     1      17.765  11.912  18.925  0.00  0.00    +0.000 OA
ATOM     47  H   UNL     1      22.096  10.567  18.422  0.00  0.00    +0.000 HD
ENDBRANCH  43  46
ENDBRANCH  38  41
BRANCH  38  48
ATOM     48  O   UNL     1      21.640   7.302  19.433  0.00  0.00    +0.000 OA
ATOM     49  H   UNL     1      19.025   9.850  22.839  0.00  0.00    +0.000 HD
ENDBRANCH  38  48
ENDBRANCH  37  38
ENDBRANCH  27  37
ENDBRANCH   3  28
TORSDOF 13
ENDMDL
MODEL 14
REMARK minimizedAffinity -7.20240211
REMARK minimizedRMSD -1
REMARK  Name = 88452727
REMARK  14 active torsions:
REMARK  status: ('A' for Active; 'I' for Inactive)
REMARK    1  A    between atoms: S_2  and  C_25
REMARK    2  A    between atoms: S_2  and  C_29
REMARK    3  A    between atoms: O_5  and  C_26
REMARK    4  A    between atoms: O_8  and  N_14
REMARK    5  A    between atoms: O_8  and  C_37
REMARK    6  A    between atoms: O_9  and  C_37
REMARK    7  A    between atoms: O_10  and  C_41
REMARK    8  A    between atoms: N_13  and  CA_20
REMARK    9  A    between atoms: N_16  and  C_38
REMARK   10  A    between atoms: CA_22  and  C_26
REMARK   11  A    between atoms: C_23  and  C_25
REMARK   12  A    between atoms: C_27  and  C_28
REMARK   13  A    between atoms: C_28  and  C_30
REMARK   14  A    between atoms: C_37  and  C_39
REMARK                            x       y       z     vdW  Elec       q    Type
REMARK                         _______ _______ _______ _____ _____    ______ ____
ROOT
ATOM      1  O   UNL     1      15.386   4.526  20.377  0.00  0.00    +0.000 OA
ATOM      2  N   UNL     1      17.719   4.798  20.371  0.00  0.00    +0.000 N 
ATOM      3  C   UNL     1      16.437   4.866  20.898  0.00  0.00    +0.000 C 
ATOM      4  H   UNL     1      19.227   2.046  20.910  0.00  0.00    +0.000 HD
ENDROOT
BRANCH   2   9
ATOM      5  S   UNL     1      18.954   6.952  18.484  0.00  0.00    +0.000 S 
ATOM      6  O   UNL     1      19.777   2.464  19.412  0.00  0.00    +0.000 OA
ATOM      7  N   UNL     1      19.862   4.472  18.179  0.00  0.00    +0.000 N 
ATOM      8  C   UNL     1      18.638   5.237  18.003  0.00  0.00    +0.000 C 
ATOM      9  CA  UNL     1      18.000   4.278  19.039  0.00  0.00    +0.000 C 
ATOM     10  C   UNL     1      19.338   3.489  18.944  0.00  0.00    +0.000 C 
ATOM     11  CA  UNL     1      21.062   4.830  17.655  0.00  0.00    +0.000 C 
ATOM     12  C   UNL     1      21.277   6.069  17.151  0.00  0.00    +0.000 C 
ATOM     13  C   UNL     1      20.245   7.191  17.217  0.00  0.00    +0.000 C 
BRANCH  11  15
ATOM     14  OXT UNL     1      22.984   3.783  18.584  0.00  0.00    +0.000 OA
ATOM     15  C   UNL     1      22.140   3.830  17.712  0.00  0.00    +0.000 C 
BRANCH  15  16
ATOM     16  O   UNL     1      22.033   2.998  16.658  0.00  0.00    +0.000 OA
ATOM     17  H   UNL     1      20.234   4.693  19.874  0.00  0.00    +0.000 HD
ENDBRANCH  15  16
ENDBRANCH  11  15
BRANCH  12  18
ATOM     18  C   UNL     1      22.553   6.512  16.478  0.00  0.00    +0.000 C 
BRANCH  18  19
ATOM     19  S   UNL     1      22.798   8.272  16.764  0.00  0.00    +0.000 S 
BRANCH  19  21
ATOM     20  N   UNL     1      24.967   8.281  20.733  0.00  0.00    +0.000 N 
ATOM     21  C   UNL     1      23.659   8.276  18.337  0.00  0.00    +0.000 A 
ATOM     22  C   UNL     1      23.302   9.188  19.324  0.00  0.00    +0.000 A 
ATOM     23  C   UNL     1      24.686   7.366  18.572  0.00  0.00    +0.000 A 
ATOM     24  C   UNL     1      23.983   9.168  20.533  0.00  0.00    +0.000 A 
ATOM     25  C   UNL     1      25.332   7.391  19.800  0.00  0.00    +0.000 A 
ATOM     26  C   UNL     1      25.667   8.284  22.014  0.00  0.00    +0.000 C 
ENDBRANCH  19  21
ENDBRANCH  18  19
ENDBRANCH  12  18
ENDBRANCH   2   9
BRANCH   3  28
ATOM     27  N   UNL     1      15.977   6.663  22.474  0.00  0.00    +0.000 NA
ATOM     28  C   UNL     1      16.396   5.447  22.286  0.00  0.00    +0.000 C 
BRANCH  28  32
ATOM     29  S   UNL     1      17.268   2.644  24.978  0.00  0.00    +0.000 S 
ATOM     30  N   UNL     1      17.488   5.176  24.505  0.00  0.00    +0.000 NA
ATOM     31  N   UNL     1      18.410   4.453  26.559  0.00  0.00    +0.000 N 
ATOM     32  C   UNL     1      16.833   4.605  23.431  0.00  0.00    +0.000 A 
ATOM     33  C   UNL     1      16.623   3.244  23.507  0.00  0.00    +0.000 A 
ATOM     34  C   UNL     1      17.767   4.235  25.381  0.00  0.00    +0.000 A 
ATOM     35  H   UNL     1      17.778   7.963  18.648  0.00  0.00    +0.000 HD
ATOM     36  H   UNL     1      17.778   7.963  18.648  0.00  0.00    +0.000 HD
ENDBRANCH  28  32
BRANCH  27  37
ATOM     37  O   UNL     1      15.608   7.276  21.268  0.00  0.00    +0.000 OA
BRANCH  37  38
ATOM     38  C   UNL     1      15.400   8.666  21.511  0.00  0.00    +0.000 C 
BRANCH  38  41
ATOM     39  O   UNL     1      19.847  10.382  20.932  0.00  0.00    +0.000 OA
ATOM     40  N   UNL     1      15.969  10.074  19.642  0.00  0.00    +0.000 NA
ATOM     41  C   UNL     1      16.440   9.437  20.769  0.00  0.00    +0.000 C 
ATOM     42  C   UNL     1      17.702   9.467  21.226  0.00  0.00    +0.000 C 
ATOM     43  C   UNL     1      18.281  10.838  19.173  0.00  0.00    +0.000 C 
ATOM     44  C   UNL     1      18.714  10.243  20.481  0.00  0.00    +0.000 C 
ATOM     45  C   UNL     1      16.812  10.725  18.906  0.00  0.00    +0.000 C 
BRANCH  43  46
ATOM     46  O   UNL     1      18.588  12.215  19.173  0.00  0.00    +0.000 OA
ATOM     47  H   UNL     1      17.191  11.137  23.382  0.00  0.00    +0.000 HD
ENDBRANCH  43  46
ENDBRANCH  38  41
BRANCH  38  48
ATOM     48  O   UNL     1      15.449   8.975  22.901  0.00  0.00    +0.000 OA
ATOM     49  H   UNL     1      15.335   8.403  17.941  0.00  0.00    +0.000 HD
ENDBRANCH  38  48
ENDBRANCH  37  38
ENDBRANCH  27  37
ENDBRANCH   3  28
TORSDOF 13
ENDMDL
MODEL 15
REMARK minimizedAffinity -7.07650566
REMARK minimizedRMSD -1
REMARK  Name = 88452727
REMARK  14 active torsions:
REMARK  status: ('A' for Active; 'I' for Inactive)
REMARK    1  A    between atoms: S_2  and  C_25
REMARK    2  A    between atoms: S_2  and  C_29
REMARK    3  A    between atoms: O_5  and  C_26
REMARK    4  A    between atoms: O_8  and  N_14
REMARK    5  A    between atoms: O_8  and  C_37
REMARK    6  A    between atoms: O_9  and  C_37
REMARK    7  A    between atoms: O_10  and  C_41
REMARK    8  A    between atoms: N_13  and  CA_20
REMARK    9  A    between atoms: N_16  and  C_38
REMARK   10  A    between atoms: CA_22  and  C_26
REMARK   11  A    between atoms: C_23  and  C_25
REMARK   12  A    between atoms: C_27  and  C_28
REMARK   13  A    between atoms: C_28  and  C_30
REMARK   14  A    between atoms: C_37  and  C_39
REMARK                            x       y       z     vdW  Elec       q    Type
REMARK                         _______ _______ _______ _____ _____    ______ ____
ROOT
ATOM      1  O   UNL     1      16.401   5.905  23.403  0.00  0.00    +0.000 OA
ATOM      2  N   UNL     1      15.759   7.005  21.430  0.00  0.00    +0.000 N 
ATOM      3  C   UNL     1      15.828   5.948  22.326  0.00  0.00    +0.000 C 
ATOM      4  H   UNL     1      13.341   9.014  21.935  0.00  0.00    +0.000 HD
ENDROOT
BRANCH   2   9
ATOM      5  S   UNL     1      18.869   6.822  21.285  0.00  0.00    +0.000 S 
ATOM      6  O   UNL     1      15.626   9.782  19.734  0.00  0.00    +0.000 OA
ATOM      7  N   UNL     1      17.786   9.062  20.352  0.00  0.00    +0.000 N 
ATOM      8  C   UNL     1      17.952   8.347  21.606  0.00  0.00    +0.000 C 
ATOM      9  CA  UNL     1      16.405   8.288  21.671  0.00  0.00    +0.000 C 
ATOM     10  C   UNL     1      16.445   9.214  20.421  0.00  0.00    +0.000 C 
ATOM     11  CA  UNL     1      18.807   9.367  19.511  0.00  0.00    +0.000 C 
ATOM     12  C   UNL     1      20.028   8.796  19.639  0.00  0.00    +0.000 C 
ATOM     13  C   UNL     1      20.338   7.700  20.655  0.00  0.00    +0.000 C 
BRANCH  11  15
ATOM     14  OXT UNL     1      18.278   9.967  17.272  0.00  0.00    +0.000 OA
ATOM     15  C   UNL     1      18.512  10.303  18.415  0.00  0.00    +0.000 C 
BRANCH  15  16
ATOM     16  O   UNL     1      18.546  11.566  18.884  0.00  0.00    +0.000 OA
ATOM     17  H   UNL     1      17.027   7.822  19.243  0.00  0.00    +0.000 HD
ENDBRANCH  15  16
ENDBRANCH  11  15
BRANCH  12  18
ATOM     18  C   UNL     1      21.232   9.146  18.798  0.00  0.00    +0.000 C 
BRANCH  18  19
ATOM     19  S   UNL     1      22.728   8.906  19.770  0.00  0.00    +0.000 S 
BRANCH  19  21
ATOM     20  N   UNL     1      25.957   9.246  16.620  0.00  0.00    +0.000 N 
ATOM     21  C   UNL     1      24.008   9.042  18.521  0.00  0.00    +0.000 A 
ATOM     22  C   UNL     1      25.296   9.418  18.883  0.00  0.00    +0.000 A 
ATOM     23  C   UNL     1      23.713   8.769  17.188  0.00  0.00    +0.000 A 
ATOM     24  C   UNL     1      26.268   9.514  17.896  0.00  0.00    +0.000 A 
ATOM     25  C   UNL     1      24.724   8.880  16.244  0.00  0.00    +0.000 A 
ATOM     26  C   UNL     1      26.999   9.356  15.605  0.00  0.00    +0.000 C 
ENDBRANCH  19  21
ENDBRANCH  18  19
ENDBRANCH  12  18
ENDBRANCH   2   9
BRANCH   3  28
ATOM     27  N   UNL     1      15.532   4.040  20.844  0.00  0.00    +0.000 NA
ATOM     28  C   UNL     1      15.089   4.723  21.857  0.00  0.00    +0.000 C 
BRANCH  28  32
ATOM     29  S   UNL     1      12.106   3.901  24.366  0.00  0.00    +0.000 S 
ATOM     30  N   UNL     1      12.840   3.660  21.899  0.00  0.00    +0.000 NA
ATOM     31  N   UNL     1      10.711   2.764  22.406  0.00  0.00    +0.000 N 
ATOM     32  C   UNL     1      13.854   4.308  22.575  0.00  0.00    +0.000 A 
ATOM     33  C   UNL     1      13.639   4.527  23.920  0.00  0.00    +0.000 A 
ATOM     34  C   UNL     1      11.866   3.397  22.743  0.00  0.00    +0.000 A 
ATOM     35  H   UNL     1      16.889   7.606  18.708  0.00  0.00    +0.000 HD
ATOM     36  H   UNL     1      16.889   7.606  18.708  0.00  0.00    +0.000 HD
ENDBRANCH  28  32
BRANCH  27  37
ATOM     37  O   UNL     1      16.707   4.596  20.318  0.00  0.00    +0.000 OA
BRANCH  37  38
ATOM     38  C   UNL     1      17.580   3.536  19.935  0.00  0.00    +0.000 C 
BRANCH  38  41
ATOM     39  O   UNL     1      18.977   5.990  16.051  0.00  0.00    +0.000 OA
ATOM     40  N   UNL     1      19.905   3.725  19.339  0.00  0.00    +0.000 NA
ATOM     41  C   UNL     1      18.617   4.087  19.014  0.00  0.00    +0.000 C 
ATOM     42  C   UNL     1      18.248   4.853  17.975  0.00  0.00    +0.000 C 
ATOM     43  C   UNL     1      20.716   5.131  17.464  0.00  0.00    +0.000 C 
ATOM     44  C   UNL     1      19.289   5.381  17.070  0.00  0.00    +0.000 C 
ATOM     45  C   UNL     1      20.876   4.199  18.625  0.00  0.00    +0.000 C 
BRANCH  43  46
ATOM     46  O   UNL     1      21.394   4.541  16.375  0.00  0.00    +0.000 OA
ATOM     47  H   UNL     1      17.179   2.791  16.456  0.00  0.00    +0.000 HD
ENDBRANCH  43  46
ENDBRANCH  38  41
BRANCH  38  48
ATOM     48  O   UNL     1      16.875   2.468  19.309  0.00  0.00    +0.000 OA
ATOM     49  H   UNL     1      19.783   6.002  21.306  0.00  0.00    +0.000 HD
ENDBRANCH  38  48
ENDBRANCH  37  38
ENDBRANCH  27  37
ENDBRANCH   3  28
TORSDOF 13
ENDMDL
MODEL 16
REMARK minimizedAffinity -7.03285742
REMARK minimizedRMSD -1
REMARK  Name = 88452727
REMARK  14 active torsions:
REMARK  status: ('A' for Active; 'I' for Inactive)
REMARK    1  A    between atoms: S_2  and  C_25
REMARK    2  A    between atoms: S_2  and  C_29
REMARK    3  A    between atoms: O_5  and  C_26
REMARK    4  A    between atoms: O_8  and  N_14
REMARK    5  A    between atoms: O_8  and  C_37
REMARK    6  A    between atoms: O_9  and  C_37
REMARK    7  A    between atoms: O_10  and  C_41
REMARK    8  A    between atoms: N_13  and  CA_20
REMARK    9  A    between atoms: N_16  and  C_38
REMARK   10  A    between atoms: CA_22  and  C_26
REMARK   11  A    between atoms: C_23  and  C_25
REMARK   12  A    between atoms: C_27  and  C_28
REMARK   13  A    between atoms: C_28  and  C_30
REMARK   14  A    between atoms: C_37  and  C_39
REMARK                            x       y       z     vdW  Elec       q    Type
REMARK                         _______ _______ _______ _____ _____    ______ ____
ROOT
ATOM      1  O   UNL     1      16.731   2.529  23.406  0.00  0.00    +0.000 OA
ATOM      2  N   UNL     1      17.139   4.823  23.114  0.00  0.00    +0.000 N 
ATOM      3  C   UNL     1      16.803   3.676  23.818  0.00  0.00    +0.000 C 
ATOM      4  H   UNL     1      20.257   5.464  23.040  0.00  0.00    +0.000 HD
ENDROOT
BRANCH   2   9
ATOM      5  S   UNL     1      17.631   7.686  21.979  0.00  0.00    +0.000 S 
ATOM      6  O   UNL     1      19.695   3.532  21.563  0.00  0.00    +0.000 OA
ATOM      7  N   UNL     1      19.159   5.754  20.980  0.00  0.00    +0.000 N 
ATOM      8  C   UNL     1      17.766   6.167  21.006  0.00  0.00    +0.000 C 
ATOM      9  CA  UNL     1      17.473   4.810  21.696  0.00  0.00    +0.000 C 
ATOM     10  C   UNL     1      18.968   4.486  21.407  0.00  0.00    +0.000 C 
ATOM     11  CA  UNL     1      20.184   6.566  20.616  0.00  0.00    +0.000 C 
ATOM     12  C   UNL     1      20.025   7.906  20.506  0.00  0.00    +0.000 C 
ATOM     13  C   UNL     1      18.732   8.629  20.873  0.00  0.00    +0.000 C 
BRANCH  11  15
ATOM     14  OXT UNL     1      22.333   5.786  21.269  0.00  0.00    +0.000 OA
ATOM     15  C   UNL     1      21.495   5.931  20.403  0.00  0.00    +0.000 C 
BRANCH  15  16
ATOM     16  O   UNL     1      21.603   5.550  19.115  0.00  0.00    +0.000 OA
ATOM     17  H   UNL     1      19.460   5.410  22.557  0.00  0.00    +0.000 HD
ENDBRANCH  15  16
ENDBRANCH  11  15
BRANCH  12  18
ATOM     18  C   UNL     1      21.091   8.861  20.026  0.00  0.00    +0.000 C 
BRANCH  18  19
ATOM     19  S   UNL     1      20.917   9.108  18.251  0.00  0.00    +0.000 S 
BRANCH  19  21
ATOM     20  N   UNL     1      25.036   8.003  16.746  0.00  0.00    +0.000 N 
ATOM     21  C   UNL     1      22.550   8.671  17.654  0.00  0.00    +0.000 A 
ATOM     22  C   UNL     1      23.676   9.013  18.394  0.00  0.00    +0.000 A 
ATOM     23  C   UNL     1      22.692   7.987  16.449  0.00  0.00    +0.000 A 
ATOM     24  C   UNL     1      24.928   8.661  17.908  0.00  0.00    +0.000 A 
ATOM     25  C   UNL     1      23.968   7.660  16.013  0.00  0.00    +0.000 A 
ATOM     26  C   UNL     1      26.366   7.648  16.261  0.00  0.00    +0.000 C 
ENDBRANCH  19  21
ENDBRANCH  18  19
ENDBRANCH  12  18
ENDBRANCH   2   9
BRANCH   3  28
ATOM     27  N   UNL     1      15.315   4.370  25.615  0.00  0.00    +0.000 NA
ATOM     28  C   UNL     1      16.490   3.938  25.267  0.00  0.00    +0.000 C 
BRANCH  28  32
ATOM     29  S   UNL     1      19.090   2.579  27.962  0.00  0.00    +0.000 S 
ATOM     30  N   UNL     1      18.317   4.732  26.758  0.00  0.00    +0.000 NA
ATOM     31  N   UNL     1      20.078   5.025  28.309  0.00  0.00    +0.000 N 
ATOM     32  C   UNL     1      17.544   3.690  26.287  0.00  0.00    +0.000 A 
ATOM     33  C   UNL     1      17.816   2.448  26.822  0.00  0.00    +0.000 A 
ATOM     34  C   UNL     1      19.167   4.264  27.646  0.00  0.00    +0.000 A 
ATOM     35  H   UNL     1      15.638   5.066  20.854  0.00  0.00    +0.000 HD
ATOM     36  H   UNL     1      15.638   5.066  20.854  0.00  0.00    +0.000 HD
ENDBRANCH  28  32
BRANCH  27  37
ATOM     37  O   UNL     1      14.473   4.531  24.505  0.00  0.00    +0.000 OA
BRANCH  37  38
ATOM     38  C   UNL     1      13.369   5.350  24.887  0.00  0.00    +0.000 C 
BRANCH  38  41
ATOM     39  O   UNL     1      14.843   9.653  23.346  0.00  0.00    +0.000 OA
ATOM     40  N   UNL     1      12.294   6.458  23.039  0.00  0.00    +0.000 NA
ATOM     41  C   UNL     1      13.311   6.523  23.966  0.00  0.00    +0.000 C 
ATOM     42  C   UNL     1      14.200   7.521  24.097  0.00  0.00    +0.000 C 
ATOM     43  C   UNL     1      13.117   8.585  22.066  0.00  0.00    +0.000 C 
ATOM     44  C   UNL     1      14.118   8.676  23.181  0.00  0.00    +0.000 C 
ATOM     45  C   UNL     1      12.197   7.408  22.164  0.00  0.00    +0.000 C 
BRANCH  43  46
ATOM     46  O   UNL     1      12.303   9.738  22.087  0.00  0.00    +0.000 OA
ATOM     47  H   UNL     1      13.116   8.574  26.424  0.00  0.00    +0.000 HD
ENDBRANCH  43  46
ENDBRANCH  38  41
BRANCH  38  48
ATOM     48  O   UNL     1      13.475   5.785  26.239  0.00  0.00    +0.000 OA
ATOM     49  H   UNL     1      12.748   4.637  21.434  0.00  0.00    +0.000 HD
ENDBRANCH  38  48
ENDBRANCH  37  38
ENDBRANCH  27  37
ENDBRANCH   3  28
TORSDOF 13
ENDMDL
MODEL 17
REMARK minimizedAffinity -6.95929241
REMARK minimizedRMSD -1
REMARK  Name = 88452727
REMARK  14 active torsions:
REMARK  status: ('A' for Active; 'I' for Inactive)
REMARK    1  A    between atoms: S_2  and  C_25
REMARK    2  A    between atoms: S_2  and  C_29
REMARK    3  A    between atoms: O_5  and  C_26
REMARK    4  A    between atoms: O_8  and  N_14
REMARK    5  A    between atoms: O_8  and  C_37
REMARK    6  A    between atoms: O_9  and  C_37
REMARK    7  A    between atoms: O_10  and  C_41
REMARK    8  A    between atoms: N_13  and  CA_20
REMARK    9  A    between atoms: N_16  and  C_38
REMARK   10  A    between atoms: CA_22  and  C_26
REMARK   11  A    between atoms: C_23  and  C_25
REMARK   12  A    between atoms: C_27  and  C_28
REMARK   13  A    between atoms: C_28  and  C_30
REMARK   14  A    between atoms: C_37  and  C_39
REMARK                            x       y       z     vdW  Elec       q    Type
REMARK                         _______ _______ _______ _____ _____    ______ ____
ROOT
ATOM      1  O   UNL     1      18.688   6.764  17.273  0.00  0.00    +0.000 OA
ATOM      2  N   UNL     1      19.470   6.335  19.445  0.00  0.00    +0.000 N 
ATOM      3  C   UNL     1      19.281   7.081  18.292  0.00  0.00    +0.000 C 
ATOM      4  H   UNL     1      17.156   6.637  21.612  0.00  0.00    +0.000 HD
ENDROOT
BRANCH   2   9
ATOM      5  S   UNL     1      20.681   4.877  21.923  0.00  0.00    +0.000 S 
ATOM      6  O   UNL     1      16.442   5.297  20.042  0.00  0.00    +0.000 OA
ATOM      7  N   UNL     1      18.132   4.349  21.386  0.00  0.00    +0.000 N 
ATOM      8  C   UNL     1      19.452   4.150  20.813  0.00  0.00    +0.000 C 
ATOM      9  CA  UNL     1      18.951   4.982  19.606  0.00  0.00    +0.000 C 
ATOM     10  C   UNL     1      17.562   4.923  20.304  0.00  0.00    +0.000 C 
ATOM     11  CA  UNL     1      17.795   4.001  22.655  0.00  0.00    +0.000 C 
ATOM     12  C   UNL     1      18.734   3.686  23.578  0.00  0.00    +0.000 C 
ATOM     13  C   UNL     1      20.234   3.790  23.318  0.00  0.00    +0.000 C 
BRANCH  11  15
ATOM     14  OXT UNL     1      15.577   3.151  22.745  0.00  0.00    +0.000 OA
ATOM     15  C   UNL     1      16.365   4.038  23.000  0.00  0.00    +0.000 C 
BRANCH  15  16
ATOM     16  O   UNL     1      16.088   5.196  23.630  0.00  0.00    +0.000 OA
ATOM     17  H   UNL     1      18.375   1.850  23.470  0.00  0.00    +0.000 HD
ENDBRANCH  15  16
ENDBRANCH  11  15
BRANCH  12  18
ATOM     18  C   UNL     1      18.434   3.209  24.979  0.00  0.00    +0.000 C 
BRANCH  18  19
ATOM     19  S   UNL     1      18.115   1.438  24.950  0.00  0.00    +0.000 S 
BRANCH  19  21
ATOM     20  N   UNL     1      13.890   1.221  26.552  0.00  0.00    +0.000 N 
ATOM     21  C   UNL     1      16.440   1.353  25.585  0.00  0.00    +0.000 A 
ATOM     22  C   UNL     1      15.578   0.355  25.143  0.00  0.00    +0.000 A 
ATOM     23  C   UNL     1      16.000   2.285  26.521  0.00  0.00    +0.000 A 
ATOM     24  C   UNL     1      14.288   0.311  25.652  0.00  0.00    +0.000 A 
ATOM     25  C   UNL     1      14.699   2.193  26.995  0.00  0.00    +0.000 A 
ATOM     26  C   UNL     1      12.527   1.150  27.068  0.00  0.00    +0.000 C 
ENDBRANCH  19  21
ENDBRANCH  18  19
ENDBRANCH  12  18
ENDBRANCH   2   9
BRANCH   3  28
ATOM     27  N   UNL     1      19.201   9.483  18.678  0.00  0.00    +0.000 NA
ATOM     28  C   UNL     1      19.915   8.446  18.357  0.00  0.00    +0.000 C 
BRANCH  28  32
ATOM     29  S   UNL     1      23.625   8.502  16.908  0.00  0.00    +0.000 S 
ATOM     30  N   UNL     1      22.223   9.125  18.989  0.00  0.00    +0.000 NA
ATOM     31  N   UNL     1      24.533   9.605  19.152  0.00  0.00    +0.000 N 
ATOM     32  C   UNL     1      21.365   8.581  18.054  0.00  0.00    +0.000 A 
ATOM     33  C   UNL     1      21.940   8.184  16.866  0.00  0.00    +0.000 A 
ATOM     34  C   UNL     1      23.441   9.135  18.493  0.00  0.00    +0.000 A 
ATOM     35  H   UNL     1      15.927  10.708  19.028  0.00  0.00    +0.000 HD
ATOM     36  H   UNL     1      15.927  10.708  19.028  0.00  0.00    +0.000 HD
ENDBRANCH  28  32
BRANCH  27  37
ATOM     37  O   UNL     1      17.866   9.137  18.928  0.00  0.00    +0.000 OA
BRANCH  37  38
ATOM     38  C   UNL     1      17.223  10.237  19.568  0.00  0.00    +0.000 C 
BRANCH  38  41
ATOM     39  O   UNL     1      14.325   7.082  21.738  0.00  0.00    +0.000 OA
ATOM     40  N   UNL     1      16.531  10.534  21.855  0.00  0.00    +0.000 NA
ATOM     41  C   UNL     1      16.464   9.722  20.745  0.00  0.00    +0.000 C 
ATOM     42  C   UNL     1      15.792   8.564  20.651  0.00  0.00    +0.000 C 
ATOM     43  C   UNL     1      15.198   8.855  23.100  0.00  0.00    +0.000 C 
ATOM     44  C   UNL     1      15.040   8.076  21.826  0.00  0.00    +0.000 C 
ATOM     45  C   UNL     1      15.945  10.142  22.942  0.00  0.00    +0.000 C 
BRANCH  43  46
ATOM     46  O   UNL     1      13.918   9.187  23.593  0.00  0.00    +0.000 OA
ATOM     47  H   UNL     1      13.750   9.541  19.046  0.00  0.00    +0.000 HD
ENDBRANCH  43  46
ENDBRANCH  38  41
BRANCH  38  48
ATOM     48  O   UNL     1      16.352  10.932  18.681  0.00  0.00    +0.000 OA
ATOM     49  H   UNL     1      19.158   8.741  22.182  0.00  0.00    +0.000 HD
ENDBRANCH  38  48
ENDBRANCH  37  38
ENDBRANCH  27  37
ENDBRANCH   3  28
TORSDOF 13
ENDMDL
MODEL 18
REMARK minimizedAffinity -6.76920748
REMARK minimizedRMSD -1
REMARK  Name = 88452727
REMARK  14 active torsions:
REMARK  status: ('A' for Active; 'I' for Inactive)
REMARK    1  A    between atoms: S_2  and  C_25
REMARK    2  A    between atoms: S_2  and  C_29
REMARK    3  A    between atoms: O_5  and  C_26
REMARK    4  A    between atoms: O_8  and  N_14
REMARK    5  A    between atoms: O_8  and  C_37
REMARK    6  A    between atoms: O_9  and  C_37
REMARK    7  A    between atoms: O_10  and  C_41
REMARK    8  A    between atoms: N_13  and  CA_20
REMARK    9  A    between atoms: N_16  and  C_38
REMARK   10  A    between atoms: CA_22  and  C_26
REMARK   11  A    between atoms: C_23  and  C_25
REMARK   12  A    between atoms: C_27  and  C_28
REMARK   13  A    between atoms: C_28  and  C_30
REMARK   14  A    between atoms: C_37  and  C_39
REMARK                            x       y       z     vdW  Elec       q    Type
REMARK                         _______ _______ _______ _____ _____    ______ ____
ROOT
ATOM      1  O   UNL     1      15.010   1.914  24.114  0.00  0.00    +0.000 OA
ATOM      2  N   UNL     1      14.174   3.786  22.968  0.00  0.00    +0.000 N 
ATOM      3  C   UNL     1      14.266   2.443  23.303  0.00  0.00    +0.000 C 
ATOM      4  H   UNL     1      12.151   5.461  24.769  0.00  0.00    +0.000 HD
ENDROOT
BRANCH   2   9
ATOM      5  S   UNL     1      16.125   5.114  20.930  0.00  0.00    +0.000 S 
ATOM      6  O   UNL     1      13.352   6.615  24.357  0.00  0.00    +0.000 OA
ATOM      7  N   UNL     1      15.120   6.715  22.799  0.00  0.00    +0.000 N 
ATOM      8  C   UNL     1      16.009   5.572  22.676  0.00  0.00    +0.000 C 
ATOM      9  CA  UNL     1      15.006   4.813  23.581  0.00  0.00    +0.000 C 
ATOM     10  C   UNL     1      14.296   6.189  23.732  0.00  0.00    +0.000 C 
ATOM     11  CA  UNL     1      15.253   7.861  22.083  0.00  0.00    +0.000 C 
ATOM     12  C   UNL     1      16.065   7.932  21.001  0.00  0.00    +0.000 C 
ATOM     13  C   UNL     1      16.812   6.729  20.433  0.00  0.00    +0.000 C 
BRANCH  11  15
ATOM     14  OXT UNL     1      13.295   9.208  22.121  0.00  0.00    +0.000 OA
ATOM     15  C   UNL     1      14.431   9.008  22.499  0.00  0.00    +0.000 C 
BRANCH  15  16
ATOM     16  O   UNL     1      15.137   9.778  23.350  0.00  0.00    +0.000 OA
ATOM     17  H   UNL     1      13.725   6.084  22.449  0.00  0.00    +0.000 HD
ENDBRANCH  15  16
ENDBRANCH  11  15
BRANCH  12  18
ATOM     18  C   UNL     1      16.330   9.189  20.208  0.00  0.00    +0.000 C 
BRANCH  18  19
ATOM     19  S   UNL     1      17.827   9.978  20.822  0.00  0.00    +0.000 S 
BRANCH  19  21
ATOM     20  N   UNL     1      20.867   8.782  17.695  0.00  0.00    +0.000 N 
ATOM     21  C   UNL     1      19.032   9.502  19.583  0.00  0.00    +0.000 A 
ATOM     22  C   UNL     1      18.784   9.756  18.238  0.00  0.00    +0.000 A 
ATOM     23  C   UNL     1      20.217   8.880  19.965  0.00  0.00    +0.000 A 
ATOM     24  C   UNL     1      19.735   9.379  17.300  0.00  0.00    +0.000 A 
ATOM     25  C   UNL     1      21.132   8.525  18.983  0.00  0.00    +0.000 A 
ATOM     26  C   UNL     1      21.847   8.395  16.685  0.00  0.00    +0.000 C 
ENDBRANCH  19  21
ENDBRANCH  18  19
ENDBRANCH  12  18
ENDBRANCH   2   9
BRANCH   3  28
ATOM     27  N   UNL     1      12.068   1.478  22.902  0.00  0.00    +0.000 NA
ATOM     28  C   UNL     1      13.310   1.572  22.532  0.00  0.00    +0.000 C 
BRANCH  28  32
ATOM     29  S   UNL     1      15.182   0.083  19.347  0.00  0.00    +0.000 S 
ATOM     30  N   UNL     1      13.125  -0.272  20.872  0.00  0.00    +0.000 NA
ATOM     31  N   UNL     1      13.352  -1.833  19.111  0.00  0.00    +0.000 N 
ATOM     32  C   UNL     1      13.810   0.830  21.344  0.00  0.00    +0.000 A 
ATOM     33  C   UNL     1      14.949   1.176  20.648  0.00  0.00    +0.000 A 
ATOM     34  C   UNL     1      13.757  -0.748  19.821  0.00  0.00    +0.000 A 
ATOM     35  H   UNL     1      12.649   1.437  27.117  0.00  0.00    +0.000 HD
ATOM     36  H   UNL     1      12.649   1.437  27.117  0.00  0.00    +0.000 HD
ENDBRANCH  28  32
BRANCH  27  37
ATOM     37  O   UNL     1      11.805   2.258  24.038  0.00  0.00    +0.000 OA
BRANCH  37  38
ATOM     38  C   UNL     1      10.650   1.736  24.691  0.00  0.00    +0.000 C 
BRANCH  38  41
ATOM     39  O   UNL     1       5.955   2.747  24.673  0.00  0.00    +0.000 OA
ATOM     40  N   UNL     1       9.770   3.590  23.434  0.00  0.00    +0.000 NA
ATOM     41  C   UNL     1       9.469   2.557  24.293  0.00  0.00    +0.000 C 
ATOM     42  C   UNL     1       8.251   2.249  24.764  0.00  0.00    +0.000 C 
ATOM     43  C   UNL     1       7.393   4.290  23.528  0.00  0.00    +0.000 C 
ATOM     44  C   UNL     1       7.095   3.070  24.350  0.00  0.00    +0.000 C 
ATOM     45  C   UNL     1       8.816   4.389  23.074  0.00  0.00    +0.000 C 
BRANCH  43  46
ATOM     46  O   UNL     1       6.597   4.261  22.363  0.00  0.00    +0.000 OA
ATOM     47  H   UNL     1       7.906  -0.027  23.215  0.00  0.00    +0.000 HD
ENDBRANCH  43  46
ENDBRANCH  38  41
BRANCH  38  48
ATOM     48  O   UNL     1      10.798   1.732  26.108  0.00  0.00    +0.000 OA
ATOM     49  H   UNL     1       9.767   1.681  21.222  0.00  0.00    +0.000 HD
ENDBRANCH  38  48
ENDBRANCH  37  38
ENDBRANCH  27  37
ENDBRANCH   3  28
TORSDOF 13
ENDMDL
MODEL 19
REMARK minimizedAffinity -6.71553278
REMARK minimizedRMSD -1
REMARK  Name = 88452727
REMARK  14 active torsions:
REMARK  status: ('A' for Active; 'I' for Inactive)
REMARK    1  A    between atoms: S_2  and  C_25
REMARK    2  A    between atoms: S_2  and  C_29
REMARK    3  A    between atoms: O_5  and  C_26
REMARK    4  A    between atoms: O_8  and  N_14
REMARK    5  A    between atoms: O_8  and  C_37
REMARK    6  A    between atoms: O_9  and  C_37
REMARK    7  A    between atoms: O_10  and  C_41
REMARK    8  A    between atoms: N_13  and  CA_20
REMARK    9  A    between atoms: N_16  and  C_38
REMARK   10  A    between atoms: CA_22  and  C_26
REMARK   11  A    between atoms: C_23  and  C_25
REMARK   12  A    between atoms: C_27  and  C_28
REMARK   13  A    between atoms: C_28  and  C_30
REMARK   14  A    between atoms: C_37  and  C_39
REMARK                            x       y       z     vdW  Elec       q    Type
REMARK                         _______ _______ _______ _____ _____    ______ ____
ROOT
ATOM      1  O   UNL     1      13.243   4.102  26.374  0.00  0.00    +0.000 OA
ATOM      2  N   UNL     1      14.331   4.327  24.305  0.00  0.00    +0.000 N 
ATOM      3  C   UNL     1      13.425   3.789  25.208  0.00  0.00    +0.000 C 
ATOM      4  H   UNL     1      13.239   6.830  22.667  0.00  0.00    +0.000 HD
ENDROOT
BRANCH   2   9
ATOM      5  S   UNL     1      16.212   5.102  21.941  0.00  0.00    +0.000 S 
ATOM      6  O   UNL     1      13.724   7.421  25.122  0.00  0.00    +0.000 OA
ATOM      7  N   UNL     1      15.397   7.103  23.489  0.00  0.00    +0.000 N 
ATOM      8  C   UNL     1      16.224   5.910  23.560  0.00  0.00    +0.000 C 
ATOM      9  CA  UNL     1      15.245   5.408  24.651  0.00  0.00    +0.000 C 
ATOM     10  C   UNL     1      14.608   6.824  24.551  0.00  0.00    +0.000 C 
ATOM     11  CA  UNL     1      15.538   8.070  22.548  0.00  0.00    +0.000 C 
ATOM     12  C   UNL     1      16.285   7.874  21.435  0.00  0.00    +0.000 C 
ATOM     13  C   UNL     1      16.940   6.541  21.089  0.00  0.00    +0.000 C 
BRANCH  11  15
ATOM     14  OXT UNL     1      15.251  10.303  23.312  0.00  0.00    +0.000 OA
ATOM     15  C   UNL     1      14.795   9.322  22.760  0.00  0.00    +0.000 C 
BRANCH  15  16
ATOM     16  O   UNL     1      13.554   9.197  22.251  0.00  0.00    +0.000 OA
ATOM     17  H   UNL     1      17.552   8.920  21.625  0.00  0.00    +0.000 HD
ENDBRANCH  15  16
ENDBRANCH  11  15
BRANCH  12  18
ATOM     18  C   UNL     1      16.557   8.928  20.388  0.00  0.00    +0.000 C 
BRANCH  18  19
ATOM     19  S   UNL     1      17.951   9.940  20.909  0.00  0.00    +0.000 S 
BRANCH  19  21
ATOM     20  N   UNL     1      21.157   8.700  17.969  0.00  0.00    +0.000 N 
ATOM     21  C   UNL     1      19.222   9.450  19.743  0.00  0.00    +0.000 A 
ATOM     22  C   UNL     1      20.431   8.939  20.205  0.00  0.00    +0.000 A 
ATOM     23  C   UNL     1      19.001   9.579  18.375  0.00  0.00    +0.000 A 
ATOM     24  C   UNL     1      21.396   8.566  19.281  0.00  0.00    +0.000 A 
ATOM     25  C   UNL     1      20.002   9.189  17.497  0.00  0.00    +0.000 A 
ATOM     26  C   UNL     1      22.192   8.300  17.021  0.00  0.00    +0.000 C 
ENDBRANCH  19  21
ENDBRANCH  18  19
ENDBRANCH  12  18
ENDBRANCH   2   9
BRANCH   3  28
ATOM     27  N   UNL     1      13.087   1.483  24.508  0.00  0.00    +0.000 NA
ATOM     28  C   UNL     1      12.593   2.680  24.624  0.00  0.00    +0.000 C 
BRANCH  28  32
ATOM     29  S   UNL     1       9.176   3.961  23.027  0.00  0.00    +0.000 S 
ATOM     30  N   UNL     1      10.138   2.294  24.753  0.00  0.00    +0.000 NA
ATOM     31  N   UNL     1       7.783   2.274  24.540  0.00  0.00    +0.000 N 
ATOM     32  C   UNL     1      11.200   2.975  24.192  0.00  0.00    +0.000 A 
ATOM     33  C   UNL     1      10.877   3.917  23.238  0.00  0.00    +0.000 A 
ATOM     34  C   UNL     1       9.021   2.732  24.214  0.00  0.00    +0.000 A 
ATOM     35  H   UNL     1      16.028  -0.430  24.572  0.00  0.00    +0.000 HD
ATOM     36  H   UNL     1      16.028  -0.430  24.572  0.00  0.00    +0.000 HD
ENDBRANCH  28  32
BRANCH  27  37
ATOM     37  O   UNL     1      14.407   1.419  24.977  0.00  0.00    +0.000 OA
BRANCH  37  38
ATOM     38  C   UNL     1      14.418   0.694  26.205  0.00  0.00    +0.000 C 
BRANCH  38  41
ATOM     39  O   UNL     1      16.230   2.012  30.453  0.00  0.00    +0.000 OA
ATOM     40  N   UNL     1      16.598   1.700  26.383  0.00  0.00    +0.000 NA
ATOM     41  C   UNL     1      15.494   1.254  27.075  0.00  0.00    +0.000 C 
ATOM     42  C   UNL     1      15.325   1.293  28.406  0.00  0.00    +0.000 C 
ATOM     43  C   UNL     1      17.678   2.229  28.551  0.00  0.00    +0.000 C 
ATOM     44  C   UNL     1      16.399   1.859  29.247  0.00  0.00    +0.000 C 
ATOM     45  C   UNL     1      17.605   2.155  27.058  0.00  0.00    +0.000 C 
BRANCH  43  46
ATOM     46  O   UNL     1      18.005   3.563  28.876  0.00  0.00    +0.000 OA
ATOM     47  H   UNL     1      13.470   3.357  28.403  0.00  0.00    +0.000 HD
ENDBRANCH  43  46
ENDBRANCH  38  41
BRANCH  38  48
ATOM     48  O   UNL     1      14.621  -0.700  25.996  0.00  0.00    +0.000 OA
ATOM     49  H   UNL     1      14.030   4.103  27.229  0.00  0.00    +0.000 HD
ENDBRANCH  38  48
ENDBRANCH  37  38
ENDBRANCH  27  37
ENDBRANCH   3  28
TORSDOF 13
ENDMDL
MODEL 20
REMARK minimizedAffinity -6.70674515
REMARK minimizedRMSD -1
REMARK  Name = 88452727
REMARK  14 active torsions:
REMARK  status: ('A' for Active; 'I' for Inactive)
REMARK    1  A    between atoms: S_2  and  C_25
REMARK    2  A    between atoms: S_2  and  C_29
REMARK    3  A    between atoms: O_5  and  C_26
REMARK    4  A    between atoms: O_8  and  N_14
REMARK    5  A    between atoms: O_8  and  C_37
REMARK    6  A    between atoms: O_9  and  C_37
REMARK    7  A    between atoms: O_10  and  C_41
REMARK    8  A    between atoms: N_13  and  CA_20
REMARK    9  A    between atoms: N_16  and  C_38
REMARK   10  A    between atoms: CA_22  and  C_26
REMARK   11  A    between atoms: C_23  and  C_25
REMARK   12  A    between atoms: C_27  and  C_28
REMARK   13  A    between atoms: C_28  and  C_30
REMARK   14  A    between atoms: C_37  and  C_39
REMARK                            x       y       z     vdW  Elec       q    Type
REMARK                         _______ _______ _______ _____ _____    ______ ____
ROOT
ATOM      1  O   UNL     1      18.192   5.240  18.548  0.00  0.00    +0.000 OA
ATOM      2  N   UNL     1      19.068   5.401  20.721  0.00  0.00    +0.000 N 
ATOM      3  C   UNL     1      18.757   5.846  19.444  0.00  0.00    +0.000 C 
ATOM      4  H   UNL     1      16.778   5.876  22.882  0.00  0.00    +0.000 HD
ENDROOT
BRANCH   2   9
ATOM      5  S   UNL     1      21.219   4.261  22.671  0.00  0.00    +0.000 S 
ATOM      6  O   UNL     1      16.566   4.360  22.527  0.00  0.00    +0.000 OA
ATOM      7  N   UNL     1      18.697   3.611  23.204  0.00  0.00    +0.000 N 
ATOM      8  C   UNL     1      19.713   3.383  22.189  0.00  0.00    +0.000 C 
ATOM      9  CA  UNL     1      18.739   4.063  21.194  0.00  0.00    +0.000 C 
ATOM     10  C   UNL     1      17.724   4.046  22.373  0.00  0.00    +0.000 C 
ATOM     11  CA  UNL     1      18.889   3.398  24.530  0.00  0.00    +0.000 C 
ATOM     12  C   UNL     1      20.127   3.213  25.049  0.00  0.00    +0.000 C 
ATOM     13  C   UNL     1      21.406   3.325  24.225  0.00  0.00    +0.000 C 
BRANCH  11  15
ATOM     14  OXT UNL     1      16.986   2.480  25.620  0.00  0.00    +0.000 OA
ATOM     15  C   UNL     1      17.697   3.437  25.392  0.00  0.00    +0.000 C 
BRANCH  15  16
ATOM     16  O   UNL     1      17.534   4.686  25.872  0.00  0.00    +0.000 OA
ATOM     17  H   UNL     1      19.991   1.491  25.413  0.00  0.00    +0.000 HD
ENDBRANCH  15  16
ENDBRANCH  11  15
BRANCH  12  18
ATOM     18  C   UNL     1      20.411   2.888  26.495  0.00  0.00    +0.000 C 
BRANCH  18  19
ATOM     19  S   UNL     1      21.797   3.883  27.069  0.00  0.00    +0.000 S 
BRANCH  19  21
ATOM     20  N   UNL     1      19.987   6.067  30.592  0.00  0.00    +0.000 N 
ATOM     21  C   UNL     1      21.080   4.748  28.466  0.00  0.00    +0.000 A 
ATOM     22  C   UNL     1      21.493   6.040  28.770  0.00  0.00    +0.000 A 
ATOM     23  C   UNL     1      20.110   4.127  29.247  0.00  0.00    +0.000 A 
ATOM     24  C   UNL     1      20.920   6.687  29.856  0.00  0.00    +0.000 A 
ATOM     25  C   UNL     1      19.571   4.822  30.321  0.00  0.00    +0.000 A 
ATOM     26  C   UNL     1      19.404   6.772  31.728  0.00  0.00    +0.000 C 
ENDBRANCH  19  21
ENDBRANCH  18  19
ENDBRANCH  12  18
ENDBRANCH   2   9
BRANCH   3  28
ATOM     27  N   UNL     1      18.498   8.260  19.622  0.00  0.00    +0.000 NA
ATOM     28  C   UNL     1      19.203   7.260  19.184  0.00  0.00    +0.000 C 
BRANCH  28  32
ATOM     29  S   UNL     1      22.615   8.492  17.538  0.00  0.00    +0.000 S 
ATOM     30  N   UNL     1      20.886   6.571  17.485  0.00  0.00    +0.000 NA
ATOM     31  N   UNL     1      22.703   6.330  15.991  0.00  0.00    +0.000 N 
ATOM     32  C   UNL     1      20.462   7.490  18.425  0.00  0.00    +0.000 A 
ATOM     33  C   UNL     1      21.268   8.596  18.594  0.00  0.00    +0.000 A 
ATOM     34  C   UNL     1      22.012   6.996  16.954  0.00  0.00    +0.000 A 
ATOM     35  H   UNL     1      17.109   4.685  22.418  0.00  0.00    +0.000 HD
ATOM     36  H   UNL     1      17.109   4.685  22.418  0.00  0.00    +0.000 HD
ENDBRANCH  28  32
BRANCH  27  37
ATOM     37  O   UNL     1      17.358   7.826  20.314  0.00  0.00    +0.000 OA
BRANCH  37  38
ATOM     38  C   UNL     1      17.368   8.405  21.617  0.00  0.00    +0.000 C 
BRANCH  38  41
ATOM     39  O   UNL     1      12.640   9.238  21.749  0.00  0.00    +0.000 OA
ATOM     40  N   UNL     1      15.988   7.530  23.385  0.00  0.00    +0.000 NA
ATOM     41  C   UNL     1      16.008   8.252  22.213  0.00  0.00    +0.000 C 
ATOM     42  C   UNL     1      14.947   8.807  21.606  0.00  0.00    +0.000 C 
ATOM     43  C   UNL     1      13.519   7.754  23.418  0.00  0.00    +0.000 C 
ATOM     44  C   UNL     1      13.611   8.651  22.217  0.00  0.00    +0.000 C 
ATOM     45  C   UNL     1      14.844   7.302  23.947  0.00  0.00    +0.000 C 
BRANCH  43  46
ATOM     46  O   UNL     1      12.883   8.457  24.464  0.00  0.00    +0.000 OA
ATOM     47  H   UNL     1      15.566  11.428  22.273  0.00  0.00    +0.000 HD
ENDBRANCH  43  46
ENDBRANCH  38  41
BRANCH  38  48
ATOM     48  O   UNL     1      17.745   9.778  21.583  0.00  0.00    +0.000 OA
ATOM     49  H   UNL     1      16.242   5.054  22.181  0.00  0.00    +0.000 HD
ENDBRANCH  38  48
ENDBRANCH  37  38
ENDBRANCH  27  37
ENDBRANCH   3  28
TORSDOF 13
ENDMDL
