MODEL 1
REMARK minimizedAffinity -8.39907265
REMARK minimizedRMSD -1
REMARK  Name = 53768372
REMARK  11 active torsions:
REMARK  status: ('A' for Active; 'I' for Inactive)
REMARK    1  A    between atoms: S_2  and  C_15
REMARK    2  A    between atoms: S_2  and  C_26
REMARK    3  A    between atoms: O_4  and  N_11
REMARK    4  A    between atoms: O_4  and  C_16
REMARK    5  A    between atoms: O_6  and  C_27
REMARK    6  A    between atoms: N_10  and  CA_19
REMARK    7  A    between atoms: N_12  and  C_24
REMARK    8  A    between atoms: CA_21  and  C_27
REMARK    9  A    between atoms: C_22  and  C_24
REMARK   10  A    between atoms: C_25  and  C_28
REMARK   11  A    between atoms: C_28  and  C_31
REMARK                            x       y       z     vdW  Elec       q    Type
REMARK                         _______ _______ _______ _____ _____    ______ ____
ROOT
ATOM      1  O   UNL     1      17.097  10.634  20.291  0.00  0.00    +0.000 OA
ATOM      2  N   UNL     1      18.763   9.070  20.825  0.00  0.00    +0.000 N 
ATOM      3  C   UNL     1      17.517   9.669  20.908  0.00  0.00    +0.000 C 
ATOM      4  H   UNL     1      19.777   7.458  20.751  0.00  0.00    +0.000 HD
ENDROOT
BRANCH   2   9
ATOM      5  S   UNL     1      22.640   9.196  19.984  0.00  0.00    +0.000 S 
ATOM      6  O   UNL     1      18.649   9.653  17.639  0.00  0.00    +0.000 OA
ATOM      7  N   UNL     1      20.666   8.626  18.303  0.00  0.00    +0.000 N 
ATOM      8  C   UNL     1      20.972   8.551  19.720  0.00  0.00    +0.000 C 
ATOM      9  CA  UNL     1      19.811   9.548  19.926  0.00  0.00    +0.000 C 
ATOM     10  C   UNL     1      19.508   9.312  18.418  0.00  0.00    +0.000 C 
ATOM     11  CA  UNL     1      21.452   8.097  17.331  0.00  0.00    +0.000 C 
ATOM     12  C   UNL     1      22.727   7.713  17.583  0.00  0.00    +0.000 C 
ATOM     13  C   UNL     1      23.418   7.927  18.928  0.00  0.00    +0.000 C 
BRANCH  11  15
ATOM     14  OXT UNL     1      20.840   8.953  15.200  0.00  0.00    +0.000 OA
ATOM     15  C   UNL     1      20.882   8.021  15.978  0.00  0.00    +0.000 C 
BRANCH  15  16
ATOM     16  O   UNL     1      20.426   6.773  15.754  0.00  0.00    +0.000 OA
ATOM     17  H   UNL     1      24.832   9.288  17.507  0.00  0.00    +0.000 HD
ENDBRANCH  15  16
ENDBRANCH  11  15
BRANCH  12  18
ATOM     18  C   UNL     1      23.636   7.044  16.579  0.00  0.00    +0.000 C 
BRANCH  18  19
ATOM     19  N   UNL     1      24.835   7.884  16.263  0.00  0.00    +0.000 N 
ATOM     20  C   UNL     1      26.055   7.388  16.509  0.00  0.00    +0.000 A 
ATOM     21  C   UNL     1      24.648   9.106  15.743  0.00  0.00    +0.000 A 
ATOM     22  C   UNL     1      27.184   8.143  16.225  0.00  0.00    +0.000 A 
ATOM     23  C   UNL     1      25.741   9.906  15.440  0.00  0.00    +0.000 A 
ATOM     24  C   UNL     1      27.020   9.416  15.685  0.00  0.00    +0.000 A 
ENDBRANCH  18  19
ENDBRANCH  12  18
ENDBRANCH   2   9
BRANCH   3  26
ATOM     25  N   UNL     1      15.851   9.721  22.683  0.00  0.00    +0.000 NA
ATOM     26  C   UNL     1      16.607   9.004  21.906  0.00  0.00    +0.000 C 
BRANCH  26  30
ATOM     27  S   UNL     1      16.911   5.119  22.732  0.00  0.00    +0.000 S 
ATOM     28  N   UNL     1      15.994   6.778  20.975  0.00  0.00    +0.000 NA
ATOM     29  N   UNL     1      15.629   4.494  20.486  0.00  0.00    +0.000 N 
ATOM     30  C   UNL     1      16.585   7.518  21.980  0.00  0.00    +0.000 A 
ATOM     31  C   UNL     1      17.136   6.795  23.017  0.00  0.00    +0.000 A 
ATOM     32  C   UNL     1      16.105   5.501  21.265  0.00  0.00    +0.000 A 
ATOM     33  H   UNL     1      18.936  11.828  22.517  0.00  0.00    +0.000 HD
ATOM     34  H   UNL     1      18.936  11.828  22.517  0.00  0.00    +0.000 HD
ENDBRANCH  26  30
BRANCH  25  35
ATOM     35  O   UNL     1      15.076   8.922  23.534  0.00  0.00    +0.000 OA
BRANCH  35  37
ATOM     36  C   UNL     1      13.137   7.352  23.326  0.00  0.00    +0.000 C 
ATOM     37  C   UNL     1      13.917   8.505  22.766  0.00  0.00    +0.000 C 
ATOM     38  C   UNL     1      12.582   8.743  23.409  0.00  0.00    +0.000 C 
BRANCH  36  39
ATOM     39  S   UNL     1      12.418   6.177  22.266  0.00  0.00    +0.000 S 
BRANCH  39  40
ATOM     40  C   UNL     1      12.188   4.847  23.437  0.00  0.00    +0.000 A 
ATOM     41  C   UNL     1      11.151   3.931  23.260  0.00  0.00    +0.000 A 
ATOM     42  C   UNL     1      13.046   4.724  24.531  0.00  0.00    +0.000 A 
ATOM     43  C   UNL     1      10.971   2.893  24.175  0.00  0.00    +0.000 A 
ATOM     44  C   UNL     1      12.866   3.686  25.445  0.00  0.00    +0.000 A 
ATOM     45  C   UNL     1      11.829   2.771  25.268  0.00  0.00    +0.000 A 
ENDBRANCH  39  40
ENDBRANCH  36  39
ENDBRANCH  35  37
ENDBRANCH  25  35
ENDBRANCH   3  26
TORSDOF 11
ENDMDL
MODEL 2
REMARK minimizedAffinity -8.33434677
REMARK minimizedRMSD -1
REMARK  Name = 53768372
REMARK  11 active torsions:
REMARK  status: ('A' for Active; 'I' for Inactive)
REMARK    1  A    between atoms: S_2  and  C_15
REMARK    2  A    between atoms: S_2  and  C_26
REMARK    3  A    between atoms: O_4  and  N_11
REMARK    4  A    between atoms: O_4  and  C_16
REMARK    5  A    between atoms: O_6  and  C_27
REMARK    6  A    between atoms: N_10  and  CA_19
REMARK    7  A    between atoms: N_12  and  C_24
REMARK    8  A    between atoms: CA_21  and  C_27
REMARK    9  A    between atoms: C_22  and  C_24
REMARK   10  A    between atoms: C_25  and  C_28
REMARK   11  A    between atoms: C_28  and  C_31
REMARK                            x       y       z     vdW  Elec       q    Type
REMARK                         _______ _______ _______ _____ _____    ______ ____
ROOT
ATOM      1  O   UNL     1      14.427   3.201  26.255  0.00  0.00    +0.000 OA
ATOM      2  N   UNL     1      13.609   4.327  24.365  0.00  0.00    +0.000 N 
ATOM      3  C   UNL     1      13.577   3.412  25.405  0.00  0.00    +0.000 C 
ATOM      4  H   UNL     1      12.679   5.639  23.342  0.00  0.00    +0.000 HD
ENDROOT
BRANCH   2   9
ATOM      5  S   UNL     1      16.511   5.476  21.914  0.00  0.00    +0.000 S 
ATOM      6  O   UNL     1      14.114   7.345  25.434  0.00  0.00    +0.000 OA
ATOM      7  N   UNL     1      14.798   7.047  23.197  0.00  0.00    +0.000 N 
ATOM      8  C   UNL     1      14.885   5.697  22.672  0.00  0.00    +0.000 C 
ATOM      9  CA  UNL     1      14.741   5.222  24.135  0.00  0.00    +0.000 C 
ATOM     10  C   UNL     1      14.445   6.715  24.458  0.00  0.00    +0.000 C 
ATOM     11  CA  UNL     1      15.045   8.161  22.461  0.00  0.00    +0.000 C 
ATOM     12  C   UNL     1      15.673   8.092  21.262  0.00  0.00    +0.000 C 
ATOM     13  C   UNL     1      16.239   6.798  20.685  0.00  0.00    +0.000 C 
BRANCH  11  15
ATOM     14  OXT UNL     1      15.451  10.275  23.468  0.00  0.00    +0.000 OA
ATOM     15  C   UNL     1      14.661   9.451  23.053  0.00  0.00    +0.000 C 
BRANCH  15  16
ATOM     16  O   UNL     1      13.318   9.561  23.055  0.00  0.00    +0.000 OA
ATOM     17  H   UNL     1      17.341   8.357  19.711  0.00  0.00    +0.000 HD
ENDBRANCH  15  16
ENDBRANCH  11  15
BRANCH  12  18
ATOM     18  C   UNL     1      15.910   9.272  20.350  0.00  0.00    +0.000 C 
BRANCH  18  19
ATOM     19  N   UNL     1      17.363   9.449  20.031  0.00  0.00    +0.000 N 
ATOM     20  C   UNL     1      17.712   9.826  18.793  0.00  0.00    +0.000 A 
ATOM     21  C   UNL     1      18.268   9.225  20.995  0.00  0.00    +0.000 A 
ATOM     22  C   UNL     1      19.050   9.999  18.470  0.00  0.00    +0.000 A 
ATOM     23  C   UNL     1      19.620   9.381  20.728  0.00  0.00    +0.000 A 
ATOM     24  C   UNL     1      20.011   9.773  19.451  0.00  0.00    +0.000 A 
ENDBRANCH  18  19
ENDBRANCH  12  18
ENDBRANCH   2   9
BRANCH   3  26
ATOM     25  N   UNL     1      11.897   2.075  26.552  0.00  0.00    +0.000 NA
ATOM     26  C   UNL     1      12.311   2.599  25.437  0.00  0.00    +0.000 C 
BRANCH  26  30
ATOM     27  S   UNL     1      10.747   1.580  21.918  0.00  0.00    +0.000 S 
ATOM     28  N   UNL     1      10.441   3.201  23.908  0.00  0.00    +0.000 NA
ATOM     29  N   UNL     1       8.849   3.427  22.176  0.00  0.00    +0.000 N 
ATOM     30  C   UNL     1      11.544   2.413  24.177  0.00  0.00    +0.000 A 
ATOM     31  C   UNL     1      11.864   1.478  23.215  0.00  0.00    +0.000 A 
ATOM     32  C   UNL     1       9.942   2.851  22.744  0.00  0.00    +0.000 A 
ATOM     33  H   UNL     1      15.830   2.739  26.607  0.00  0.00    +0.000 HD
ATOM     34  H   UNL     1      15.830   2.739  26.607  0.00  0.00    +0.000 HD
ENDBRANCH  26  30
BRANCH  25  35
ATOM     35  O   UNL     1      10.703   1.364  26.380  0.00  0.00    +0.000 OA
BRANCH  35  37
ATOM     36  C   UNL     1       8.646   0.779  27.683  0.00  0.00    +0.000 C 
ATOM     37  C   UNL     1       9.946   1.523  27.609  0.00  0.00    +0.000 C 
ATOM     38  C   UNL     1       9.829   0.301  28.472  0.00  0.00    +0.000 C 
BRANCH  36  39
ATOM     39  S   UNL     1       7.273   1.479  28.487  0.00  0.00    +0.000 S 
BRANCH  39  40
ATOM     40  C   UNL     1       6.745   2.610  27.208  0.00  0.00    +0.000 A 
ATOM     41  C   UNL     1       6.071   3.783  27.547  0.00  0.00    +0.000 A 
ATOM     42  C   UNL     1       7.007   2.319  25.868  0.00  0.00    +0.000 A 
ATOM     43  C   UNL     1       5.658   4.665  26.549  0.00  0.00    +0.000 A 
ATOM     44  C   UNL     1       6.595   3.202  24.870  0.00  0.00    +0.000 A 
ATOM     45  C   UNL     1       5.920   4.374  25.209  0.00  0.00    +0.000 A 
ENDBRANCH  39  40
ENDBRANCH  36  39
ENDBRANCH  35  37
ENDBRANCH  25  35
ENDBRANCH   3  26
TORSDOF 11
ENDMDL
MODEL 3
REMARK minimizedAffinity -8.29624844
REMARK minimizedRMSD -1
REMARK  Name = 53768372
REMARK  11 active torsions:
REMARK  status: ('A' for Active; 'I' for Inactive)
REMARK    1  A    between atoms: S_2  and  C_15
REMARK    2  A    between atoms: S_2  and  C_26
REMARK    3  A    between atoms: O_4  and  N_11
REMARK    4  A    between atoms: O_4  and  C_16
REMARK    5  A    between atoms: O_6  and  C_27
REMARK    6  A    between atoms: N_10  and  CA_19
REMARK    7  A    between atoms: N_12  and  C_24
REMARK    8  A    between atoms: CA_21  and  C_27
REMARK    9  A    between atoms: C_22  and  C_24
REMARK   10  A    between atoms: C_25  and  C_28
REMARK   11  A    between atoms: C_28  and  C_31
REMARK                            x       y       z     vdW  Elec       q    Type
REMARK                         _______ _______ _______ _____ _____    ______ ____
ROOT
ATOM      1  O   UNL     1      20.507   7.557  15.571  0.00  0.00    +0.000 OA
ATOM      2  N   UNL     1      20.499   6.458  17.645  0.00  0.00    +0.000 N 
ATOM      3  C   UNL     1      21.052   6.934  16.467  0.00  0.00    +0.000 C 
ATOM      4  H   UNL     1      20.676   6.211  19.526  0.00  0.00    +0.000 HD
ENDROOT
BRANCH   2   9
ATOM      5  S   UNL     1      17.331   5.108  19.619  0.00  0.00    +0.000 S 
ATOM      6  O   UNL     1      18.808   9.202  17.977  0.00  0.00    +0.000 OA
ATOM      7  N   UNL     1      18.262   7.595  19.614  0.00  0.00    +0.000 N 
ATOM      8  C   UNL     1      18.734   6.234  19.434  0.00  0.00    +0.000 C 
ATOM      9  CA  UNL     1      19.093   6.651  17.992  0.00  0.00    +0.000 C 
ATOM     10  C   UNL     1      18.749   8.095  18.458  0.00  0.00    +0.000 C 
ATOM     11  CA  UNL     1      17.560   8.014  20.698  0.00  0.00    +0.000 C 
ATOM     12  C   UNL     1      16.993   7.133  21.557  0.00  0.00    +0.000 C 
ATOM     13  C   UNL     1      17.003   5.622  21.339  0.00  0.00    +0.000 C 
BRANCH  11  15
ATOM     14  OXT UNL     1      16.382  10.073  20.543  0.00  0.00    +0.000 OA
ATOM     15  C   UNL     1      17.385   9.465  20.861  0.00  0.00    +0.000 C 
BRANCH  15  16
ATOM     16  O   UNL     1      18.498   9.991  21.408  0.00  0.00    +0.000 OA
ATOM     17  H   UNL     1      15.019   5.983  22.212  0.00  0.00    +0.000 HD
ENDBRANCH  15  16
ENDBRANCH  11  15
BRANCH  12  18
ATOM     18  C   UNL     1      16.267   7.518  22.825  0.00  0.00    +0.000 C 
BRANCH  18  19
ATOM     19  N   UNL     1      14.779   7.465  22.656  0.00  0.00    +0.000 N 
ATOM     20  C   UNL     1      14.172   6.271  22.642  0.00  0.00    +0.000 A 
ATOM     21  C   UNL     1      14.103   8.616  22.524  0.00  0.00    +0.000 A 
ATOM     22  C   UNL     1      12.795   6.192  22.487  0.00  0.00    +0.000 A 
ATOM     23  C   UNL     1      12.725   8.597  22.366  0.00  0.00    +0.000 A 
ATOM     24  C   UNL     1      12.068   7.371  22.348  0.00  0.00    +0.000 A 
ENDBRANCH  18  19
ENDBRANCH  12  18
ENDBRANCH   2   9
BRANCH   3  26
ATOM     25  N   UNL     1      22.891   5.429  15.935  0.00  0.00    +0.000 NA
ATOM     26  C   UNL     1      22.516   6.610  16.328  0.00  0.00    +0.000 C 
BRANCH  26  30
ATOM     27  S   UNL     1      25.074   9.249  17.864  0.00  0.00    +0.000 S 
ATOM     28  N   UNL     1      24.114   8.385  15.626  0.00  0.00    +0.000 NA
ATOM     29  N   UNL     1      25.707  10.120  15.432  0.00  0.00    +0.000 N 
ATOM     30  C   UNL     1      23.518   7.663  16.642  0.00  0.00    +0.000 A 
ATOM     31  C   UNL     1      23.912   7.989  17.923  0.00  0.00    +0.000 A 
ATOM     32  C   UNL     1      24.952   9.249  16.153  0.00  0.00    +0.000 A 
ATOM     33  H   UNL     1      19.234   5.381  17.550  0.00  0.00    +0.000 HD
ATOM     34  H   UNL     1      19.234   5.381  17.550  0.00  0.00    +0.000 HD
ENDBRANCH  26  30
BRANCH  25  35
ATOM     35  O   UNL     1      24.285   5.325  15.863  0.00  0.00    +0.000 OA
BRANCH  35  37
ATOM     36  C   UNL     1      24.702   3.806  13.917  0.00  0.00    +0.000 C 
ATOM     37  C   UNL     1      24.575   3.979  15.401  0.00  0.00    +0.000 C 
ATOM     38  C   UNL     1      25.926   3.772  14.783  0.00  0.00    +0.000 C 
BRANCH  36  39
ATOM     39  S   UNL     1      24.127   2.358  13.145  0.00  0.00    +0.000 S 
BRANCH  39  40
ATOM     40  C   UNL     1      23.858   3.004  11.501  0.00  0.00    +0.000 A 
ATOM     41  C   UNL     1      22.766   2.568  10.749  0.00  0.00    +0.000 A 
ATOM     42  C   UNL     1      24.740   3.944  10.968  0.00  0.00    +0.000 A 
ATOM     43  C   UNL     1      22.557   3.072   9.465  0.00  0.00    +0.000 A 
ATOM     44  C   UNL     1      24.530   4.449   9.684  0.00  0.00    +0.000 A 
ATOM     45  C   UNL     1      23.439   4.013   8.933  0.00  0.00    +0.000 A 
ENDBRANCH  39  40
ENDBRANCH  36  39
ENDBRANCH  35  37
ENDBRANCH  25  35
ENDBRANCH   3  26
TORSDOF 11
ENDMDL
MODEL 4
REMARK minimizedAffinity -8.18736267
REMARK minimizedRMSD -1
REMARK  Name = 53768372
REMARK  11 active torsions:
REMARK  status: ('A' for Active; 'I' for Inactive)
REMARK    1  A    between atoms: S_2  and  C_15
REMARK    2  A    between atoms: S_2  and  C_26
REMARK    3  A    between atoms: O_4  and  N_11
REMARK    4  A    between atoms: O_4  and  C_16
REMARK    5  A    between atoms: O_6  and  C_27
REMARK    6  A    between atoms: N_10  and  CA_19
REMARK    7  A    between atoms: N_12  and  C_24
REMARK    8  A    between atoms: CA_21  and  C_27
REMARK    9  A    between atoms: C_22  and  C_24
REMARK   10  A    between atoms: C_25  and  C_28
REMARK   11  A    between atoms: C_28  and  C_31
REMARK                            x       y       z     vdW  Elec       q    Type
REMARK                         _______ _______ _______ _____ _____    ______ ____
ROOT
ATOM      1  O   UNL     1      13.088   4.493  25.328  0.00  0.00    +0.000 OA
ATOM      2  N   UNL     1      13.738   5.264  23.208  0.00  0.00    +0.000 N 
ATOM      3  C   UNL     1      12.979   4.540  24.113  0.00  0.00    +0.000 C 
ATOM      4  H   UNL     1      13.778   6.364  21.652  0.00  0.00    +0.000 HD
ENDROOT
BRANCH   2   9
ATOM      5  S   UNL     1      17.668   5.779  23.417  0.00  0.00    +0.000 S 
ATOM      6  O   UNL     1      13.893   8.498  23.366  0.00  0.00    +0.000 OA
ATOM      7  N   UNL     1      15.878   7.532  22.536  0.00  0.00    +0.000 N 
ATOM      8  C   UNL     1      16.057   6.097  22.661  0.00  0.00    +0.000 C 
ATOM      9  CA  UNL     1      14.844   6.126  23.617  0.00  0.00    +0.000 C 
ATOM     10  C   UNL     1      14.690   7.609  23.172  0.00  0.00    +0.000 C 
ATOM     11  CA  UNL     1      16.770   8.353  21.924  0.00  0.00    +0.000 C 
ATOM     12  C   UNL     1      18.030   7.944  21.641  0.00  0.00    +0.000 C 
ATOM     13  C   UNL     1      18.586   6.586  22.062  0.00  0.00    +0.000 C 
BRANCH  11  15
ATOM     14  OXT UNL     1      16.322  10.624  22.466  0.00  0.00    +0.000 OA
ATOM     15  C   UNL     1      16.329   9.728  21.645  0.00  0.00    +0.000 C 
BRANCH  15  16
ATOM     16  O   UNL     1      15.945   9.822  20.358  0.00  0.00    +0.000 OA
ATOM     17  H   UNL     1      20.070   8.049  23.299  0.00  0.00    +0.000 HD
ENDBRANCH  15  16
ENDBRANCH  11  15
BRANCH  12  18
ATOM     18  C   UNL     1      19.051   8.768  20.893  0.00  0.00    +0.000 C 
BRANCH  18  19
ATOM     19  N   UNL     1      19.648   8.012  19.745  0.00  0.00    +0.000 N 
ATOM     20  C   UNL     1      20.929   7.627  19.821  0.00  0.00    +0.000 A 
ATOM     21  C   UNL     1      18.880   7.746  18.678  0.00  0.00    +0.000 A 
ATOM     22  C   UNL     1      21.507   6.925  18.773  0.00  0.00    +0.000 A 
ATOM     23  C   UNL     1      19.406   7.048  17.601  0.00  0.00    +0.000 A 
ATOM     24  C   UNL     1      20.734   6.635  17.652  0.00  0.00    +0.000 A 
ENDBRANCH  18  19
ENDBRANCH  12  18
ENDBRANCH   2   9
BRANCH   3  26
ATOM     25  N   UNL     1      10.739   4.251  23.203  0.00  0.00    +0.000 NA
ATOM     26  C   UNL     1      11.899   3.722  23.457  0.00  0.00    +0.000 C 
BRANCH  26  30
ATOM     27  S   UNL     1      12.387  -0.221  23.160  0.00  0.00    +0.000 S 
ATOM     28  N   UNL     1      12.768   1.996  21.887  0.00  0.00    +0.000 NA
ATOM     29  N   UNL     1      13.466   0.049  20.743  0.00  0.00    +0.000 N 
ATOM     30  C   UNL     1      12.186   2.307  23.101  0.00  0.00    +0.000 A 
ATOM     31  C   UNL     1      11.906   1.237  23.925  0.00  0.00    +0.000 A 
ATOM     32  C   UNL     1      12.921   0.694  21.809  0.00  0.00    +0.000 A 
ATOM     33  H   UNL     1      12.167   6.012  26.365  0.00  0.00    +0.000 HD
ATOM     34  H   UNL     1      12.167   6.012  26.365  0.00  0.00    +0.000 HD
ENDBRANCH  26  30
BRANCH  25  35
ATOM     35  O   UNL     1       9.875   3.337  22.588  0.00  0.00    +0.000 OA
BRANCH  35  37
ATOM     36  C   UNL     1       7.516   2.526  22.799  0.00  0.00    +0.000 C 
ATOM     37  C   UNL     1       8.599   3.449  23.272  0.00  0.00    +0.000 C 
ATOM     38  C   UNL     1       8.197   2.272  24.111  0.00  0.00    +0.000 C 
BRANCH  36  39
ATOM     39  S   UNL     1       5.861   3.059  22.753  0.00  0.00    +0.000 S 
BRANCH  39  40
ATOM     40  C   UNL     1       5.577   3.243  24.508  0.00  0.00    +0.000 A 
ATOM     41  C   UNL     1       5.052   2.181  25.245  0.00  0.00    +0.000 A 
ATOM     42  C   UNL     1       5.880   4.449  25.141  0.00  0.00    +0.000 A 
ATOM     43  C   UNL     1       4.829   2.326  26.615  0.00  0.00    +0.000 A 
ATOM     44  C   UNL     1       5.658   4.592  26.510  0.00  0.00    +0.000 A 
ATOM     45  C   UNL     1       5.132   3.532  27.247  0.00  0.00    +0.000 A 
ENDBRANCH  39  40
ENDBRANCH  36  39
ENDBRANCH  35  37
ENDBRANCH  25  35
ENDBRANCH   3  26
TORSDOF 11
ENDMDL
MODEL 5
REMARK minimizedAffinity -8.13160801
REMARK minimizedRMSD -1
REMARK  Name = 53768372
REMARK  11 active torsions:
REMARK  status: ('A' for Active; 'I' for Inactive)
REMARK    1  A    between atoms: S_2  and  C_15
REMARK    2  A    between atoms: S_2  and  C_26
REMARK    3  A    between atoms: O_4  and  N_11
REMARK    4  A    between atoms: O_4  and  C_16
REMARK    5  A    between atoms: O_6  and  C_27
REMARK    6  A    between atoms: N_10  and  CA_19
REMARK    7  A    between atoms: N_12  and  C_24
REMARK    8  A    between atoms: CA_21  and  C_27
REMARK    9  A    between atoms: C_22  and  C_24
REMARK   10  A    between atoms: C_25  and  C_28
REMARK   11  A    between atoms: C_28  and  C_31
REMARK                            x       y       z     vdW  Elec       q    Type
REMARK                         _______ _______ _______ _____ _____    ______ ____
ROOT
ATOM      1  O   UNL     1      20.528   7.513  15.674  0.00  0.00    +0.000 OA
ATOM      2  N   UNL     1      20.687   7.067  17.973  0.00  0.00    +0.000 N 
ATOM      3  C   UNL     1      21.164   7.323  16.698  0.00  0.00    +0.000 C 
ATOM      4  H   UNL     1      20.821   7.405  19.844  0.00  0.00    +0.000 HD
ENDROOT
BRANCH   2   9
ATOM      5  S   UNL     1      17.811   5.244  20.012  0.00  0.00    +0.000 S 
ATOM      6  O   UNL     1      18.446   9.407  18.037  0.00  0.00    +0.000 OA
ATOM      7  N   UNL     1      18.197   7.863  19.801  0.00  0.00    +0.000 N 
ATOM      8  C   UNL     1      18.950   6.623  19.750  0.00  0.00    +0.000 C 
ATOM      9  CA  UNL     1      19.261   6.985  18.281  0.00  0.00    +0.000 C 
ATOM     10  C   UNL     1      18.605   8.357  18.613  0.00  0.00    +0.000 C 
ATOM     11  CA  UNL     1      17.387   8.212  20.833  0.00  0.00    +0.000 C 
ATOM     12  C   UNL     1      16.989   7.305  21.759  0.00  0.00    +0.000 C 
ATOM     13  C   UNL     1      17.325   5.818  21.675  0.00  0.00    +0.000 C 
BRANCH  11  15
ATOM     14  OXT UNL     1      15.876   9.979  20.341  0.00  0.00    +0.000 OA
ATOM     15  C   UNL     1      16.905   9.601  20.864  0.00  0.00    +0.000 C 
BRANCH  15  16
ATOM     16  O   UNL     1      17.776  10.362  21.555  0.00  0.00    +0.000 OA
ATOM     17  H   UNL     1      15.063   5.754  22.032  0.00  0.00    +0.000 HD
ENDBRANCH  15  16
ENDBRANCH  11  15
BRANCH  12  18
ATOM     18  C   UNL     1      16.158   7.631  22.977  0.00  0.00    +0.000 C 
BRANCH  18  19
ATOM     19  N   UNL     1      14.692   7.466  22.714  0.00  0.00    +0.000 N 
ATOM     20  C   UNL     1      14.211   6.236  22.488  0.00  0.00    +0.000 A 
ATOM     21  C   UNL     1      13.909   8.554  22.713  0.00  0.00    +0.000 A 
ATOM     22  C   UNL     1      12.858   6.052  22.242  0.00  0.00    +0.000 A 
ATOM     23  C   UNL     1      12.548   8.431  22.473  0.00  0.00    +0.000 A 
ATOM     24  C   UNL     1      12.021   7.165  22.235  0.00  0.00    +0.000 A 
ENDBRANCH  18  19
ENDBRANCH  12  18
ENDBRANCH   2   9
BRANCH   3  26
ATOM     25  N   UNL     1      23.290   8.481  16.437  0.00  0.00    +0.000 NA
ATOM     26  C   UNL     1      22.667   7.356  16.625  0.00  0.00    +0.000 C 
BRANCH  26  30
ATOM     27  S   UNL     1      24.742   4.142  17.739  0.00  0.00    +0.000 S 
ATOM     28  N   UNL     1      23.641   5.265  15.688  0.00  0.00    +0.000 NA
ATOM     29  N   UNL     1      24.714   3.205  15.250  0.00  0.00    +0.000 N 
ATOM     30  C   UNL     1      23.422   6.083  16.779  0.00  0.00    +0.000 A 
ATOM     31  C   UNL     1      23.943   5.641  17.977  0.00  0.00    +0.000 A 
ATOM     32  C   UNL     1      24.327   4.213  16.076  0.00  0.00    +0.000 A 
ATOM     33  H   UNL     1      22.829  10.888  17.751  0.00  0.00    +0.000 HD
ATOM     34  H   UNL     1      22.829  10.888  17.751  0.00  0.00    +0.000 HD
ENDBRANCH  26  30
BRANCH  25  35
ATOM     35  O   UNL     1      24.679   8.306  16.406  0.00  0.00    +0.000 OA
BRANCH  35  37
ATOM     36  C   UNL     1      25.173   9.053  18.744  0.00  0.00    +0.000 C 
ATOM     37  C   UNL     1      25.243   9.327  17.271  0.00  0.00    +0.000 C 
ATOM     38  C   UNL     1      26.483   8.941  18.022  0.00  0.00    +0.000 C 
BRANCH  36  39
ATOM     39  S   UNL     1      24.894  10.348  19.870  0.00  0.00    +0.000 S 
BRANCH  39  40
ATOM     40  C   UNL     1      25.391   9.524  21.375  0.00  0.00    +0.000 A 
ATOM     41  C   UNL     1      25.705  10.271  22.511  0.00  0.00    +0.000 A 
ATOM     42  C   UNL     1      25.467   8.131  21.415  0.00  0.00    +0.000 A 
ATOM     43  C   UNL     1      26.094   9.627  23.685  0.00  0.00    +0.000 A 
ATOM     44  C   UNL     1      25.855   7.487  22.590  0.00  0.00    +0.000 A 
ATOM     45  C   UNL     1      26.170   8.234  23.725  0.00  0.00    +0.000 A 
ENDBRANCH  39  40
ENDBRANCH  36  39
ENDBRANCH  35  37
ENDBRANCH  25  35
ENDBRANCH   3  26
TORSDOF 11
ENDMDL
MODEL 6
REMARK minimizedAffinity -8.08496094
REMARK minimizedRMSD -1
REMARK  Name = 53768372
REMARK  11 active torsions:
REMARK  status: ('A' for Active; 'I' for Inactive)
REMARK    1  A    between atoms: S_2  and  C_15
REMARK    2  A    between atoms: S_2  and  C_26
REMARK    3  A    between atoms: O_4  and  N_11
REMARK    4  A    between atoms: O_4  and  C_16
REMARK    5  A    between atoms: O_6  and  C_27
REMARK    6  A    between atoms: N_10  and  CA_19
REMARK    7  A    between atoms: N_12  and  C_24
REMARK    8  A    between atoms: CA_21  and  C_27
REMARK    9  A    between atoms: C_22  and  C_24
REMARK   10  A    between atoms: C_25  and  C_28
REMARK   11  A    between atoms: C_28  and  C_31
REMARK                            x       y       z     vdW  Elec       q    Type
REMARK                         _______ _______ _______ _____ _____    ______ ____
ROOT
ATOM      1  O   UNL     1      20.120   6.207  15.239  0.00  0.00    +0.000 OA
ATOM      2  N   UNL     1      20.406   6.420  17.559  0.00  0.00    +0.000 N 
ATOM      3  C   UNL     1      20.808   6.240  16.246  0.00  0.00    +0.000 C 
ATOM      4  H   UNL     1      20.718   7.258  19.242  0.00  0.00    +0.000 HD
ENDROOT
BRANCH   2   9
ATOM      5  S   UNL     1      17.290   5.060  19.608  0.00  0.00    +0.000 S 
ATOM      6  O   UNL     1      18.709   9.157  17.923  0.00  0.00    +0.000 OA
ATOM      7  N   UNL     1      18.209   7.552  19.576  0.00  0.00    +0.000 N 
ATOM      8  C   UNL     1      18.683   6.192  19.389  0.00  0.00    +0.000 C 
ATOM      9  CA  UNL     1      19.007   6.607  17.938  0.00  0.00    +0.000 C 
ATOM     10  C   UNL     1      18.666   8.051  18.408  0.00  0.00    +0.000 C 
ATOM     11  CA  UNL     1      17.529   7.970  20.675  0.00  0.00    +0.000 C 
ATOM     12  C   UNL     1      16.986   7.088  21.549  0.00  0.00    +0.000 C 
ATOM     13  C   UNL     1      16.999   5.577  21.334  0.00  0.00    +0.000 C 
BRANCH  11  15
ATOM     14  OXT UNL     1      16.341  10.024  20.533  0.00  0.00    +0.000 OA
ATOM     15  C   UNL     1      17.351   9.421  20.837  0.00  0.00    +0.000 C 
BRANCH  15  16
ATOM     16  O   UNL     1      18.469   9.952  21.369  0.00  0.00    +0.000 OA
ATOM     17  H   UNL     1      15.017   5.931  22.227  0.00  0.00    +0.000 HD
ENDBRANCH  15  16
ENDBRANCH  11  15
BRANCH  12  18
ATOM     18  C   UNL     1      16.287   7.473  22.831  0.00  0.00    +0.000 C 
BRANCH  18  19
ATOM     19  N   UNL     1      14.797   7.486  22.675  0.00  0.00    +0.000 N 
ATOM     20  C   UNL     1      14.151   8.659  22.734  0.00  0.00    +0.000 A 
ATOM     21  C   UNL     1      14.158   6.324  22.481  0.00  0.00    +0.000 A 
ATOM     22  C   UNL     1      12.772   8.701  22.592  0.00  0.00    +0.000 A 
ATOM     23  C   UNL     1      12.779   6.305  22.333  0.00  0.00    +0.000 A 
ATOM     24  C   UNL     1      12.082   7.509  22.389  0.00  0.00    +0.000 A 
ENDBRANCH  18  19
ENDBRANCH  12  18
ENDBRANCH   2   9
BRANCH   3  26
ATOM     25  N   UNL     1      23.052   7.078  15.807  0.00  0.00    +0.000 NA
ATOM     26  C   UNL     1      22.297   6.063  16.103  0.00  0.00    +0.000 C 
BRANCH  26  30
ATOM     27  S   UNL     1      23.953   2.665  17.361  0.00  0.00    +0.000 S 
ATOM     28  N   UNL     1      22.987   3.823  15.262  0.00  0.00    +0.000 NA
ATOM     29  N   UNL     1      23.783   1.625  14.918  0.00  0.00    +0.000 N 
ATOM     30  C   UNL     1      22.883   4.712  16.314  0.00  0.00    +0.000 A 
ATOM     31  C   UNL     1      23.354   4.263  17.530  0.00  0.00    +0.000 A 
ATOM     32  C   UNL     1      23.535   2.712  15.697  0.00  0.00    +0.000 A 
ATOM     33  H   UNL     1      22.919   9.594  17.062  0.00  0.00    +0.000 HD
ATOM     34  H   UNL     1      22.919   9.594  17.062  0.00  0.00    +0.000 HD
ENDBRANCH  26  30
BRANCH  25  35
ATOM     35  O   UNL     1      24.402   6.715  15.726  0.00  0.00    +0.000 OA
BRANCH  35  37
ATOM     36  C   UNL     1      25.944   7.125  17.655  0.00  0.00    +0.000 C 
ATOM     37  C   UNL     1      25.138   7.683  16.519  0.00  0.00    +0.000 C 
ATOM     38  C   UNL     1      26.633   7.616  16.417  0.00  0.00    +0.000 C 
BRANCH  36  39
ATOM     39  S   UNL     1      26.085   8.002  19.150  0.00  0.00    +0.000 S 
BRANCH  39  40
ATOM     40  C   UNL     1      24.366   8.002  19.639  0.00  0.00    +0.000 A 
ATOM     41  C   UNL     1      23.603   9.162  19.507  0.00  0.00    +0.000 A 
ATOM     42  C   UNL     1      23.787   6.841  20.152  0.00  0.00    +0.000 A 
ATOM     43  C   UNL     1      22.261   9.163  19.890  0.00  0.00    +0.000 A 
ATOM     44  C   UNL     1      22.445   6.842  20.534  0.00  0.00    +0.000 A 
ATOM     45  C   UNL     1      21.682   8.002  20.404  0.00  0.00    +0.000 A 
ENDBRANCH  39  40
ENDBRANCH  36  39
ENDBRANCH  35  37
ENDBRANCH  25  35
ENDBRANCH   3  26
TORSDOF 11
ENDMDL
MODEL 7
REMARK minimizedAffinity -7.97905064
REMARK minimizedRMSD -1
REMARK  Name = 53768372
REMARK  11 active torsions:
REMARK  status: ('A' for Active; 'I' for Inactive)
REMARK    1  A    between atoms: S_2  and  C_15
REMARK    2  A    between atoms: S_2  and  C_26
REMARK    3  A    between atoms: O_4  and  N_11
REMARK    4  A    between atoms: O_4  and  C_16
REMARK    5  A    between atoms: O_6  and  C_27
REMARK    6  A    between atoms: N_10  and  CA_19
REMARK    7  A    between atoms: N_12  and  C_24
REMARK    8  A    between atoms: CA_21  and  C_27
REMARK    9  A    between atoms: C_22  and  C_24
REMARK   10  A    between atoms: C_25  and  C_28
REMARK   11  A    between atoms: C_28  and  C_31
REMARK                            x       y       z     vdW  Elec       q    Type
REMARK                         _______ _______ _______ _____ _____    ______ ____
ROOT
ATOM      1  O   UNL     1      16.162   2.842  22.978  0.00  0.00    +0.000 OA
ATOM      2  N   UNL     1      14.850   4.730  22.505  0.00  0.00    +0.000 N 
ATOM      3  C   UNL     1      15.154   3.379  22.549  0.00  0.00    +0.000 C 
ATOM      4  H   UNL     1      13.550   6.101  22.759  0.00  0.00    +0.000 HD
ENDROOT
BRANCH   2   9
ATOM      5  S   UNL     1      18.581   6.065  22.728  0.00  0.00    +0.000 S 
ATOM      6  O   UNL     1      14.310   7.879  23.048  0.00  0.00    +0.000 OA
ATOM      7  N   UNL     1      16.423   7.473  22.085  0.00  0.00    +0.000 N 
ATOM      8  C   UNL     1      16.912   6.107  22.034  0.00  0.00    +0.000 C 
ATOM      9  CA  UNL     1      15.759   5.761  23.001  0.00  0.00    +0.000 C 
ATOM     10  C   UNL     1      15.271   7.215  22.740  0.00  0.00    +0.000 C 
ATOM     11  CA  UNL     1      17.093   8.534  21.566  0.00  0.00    +0.000 C 
ATOM     12  C   UNL     1      18.400   8.446  21.221  0.00  0.00    +0.000 C 
ATOM     13  C   UNL     1      19.252   7.204  21.469  0.00  0.00    +0.000 C 
BRANCH  11  15
ATOM     14  OXT UNL     1      16.274  10.623  22.351  0.00  0.00    +0.000 OA
ATOM     15  C   UNL     1      16.355   9.802  21.459  0.00  0.00    +0.000 C 
BRANCH  15  16
ATOM     16  O   UNL     1      15.801   9.896  20.235  0.00  0.00    +0.000 OA
ATOM     17  H   UNL     1      20.534   8.838  22.535  0.00  0.00    +0.000 HD
ENDBRANCH  15  16
ENDBRANCH  11  15
BRANCH  12  18
ATOM     18  C   UNL     1      19.190   9.554  20.565  0.00  0.00    +0.000 C 
BRANCH  18  19
ATOM     19  N   UNL     1      19.873   9.090  19.315  0.00  0.00    +0.000 N 
ATOM     20  C   UNL     1      21.211   9.144  19.251  0.00  0.00    +0.000 A 
ATOM     21  C   UNL     1      19.124   8.636  18.300  0.00  0.00    +0.000 A 
ATOM     22  C   UNL     1      21.870   8.720  18.106  0.00  0.00    +0.000 A 
ATOM     23  C   UNL     1      19.729   8.200  17.130  0.00  0.00    +0.000 A 
ATOM     24  C   UNL     1      21.117   8.244  17.036  0.00  0.00    +0.000 A 
ENDBRANCH  18  19
ENDBRANCH  12  18
ENDBRANCH   2   9
BRANCH   3  26
ATOM     25  N   UNL     1      12.818   2.771  22.227  0.00  0.00    +0.000 NA
ATOM     26  C   UNL     1      14.066   2.510  21.976  0.00  0.00    +0.000 C 
BRANCH  26  30
ATOM     27  S   UNL     1      15.194  -0.071  19.159  0.00  0.00    +0.000 S 
ATOM     28  N   UNL     1      14.402   0.070  21.615  0.00  0.00    +0.000 NA
ATOM     29  N   UNL     1      14.847  -2.114  20.827  0.00  0.00    +0.000 N 
ATOM     30  C   UNL     1      14.445   1.357  21.116  0.00  0.00    +0.000 A 
ATOM     31  C   UNL     1      14.851   1.481  19.804  0.00  0.00    +0.000 A 
ATOM     32  C   UNL     1      14.776  -0.765  20.672  0.00  0.00    +0.000 A 
ATOM     33  H   UNL     1      12.128   5.668  21.772  0.00  0.00    +0.000 HD
ATOM     34  H   UNL     1      12.128   5.668  21.772  0.00  0.00    +0.000 HD
ENDBRANCH  26  30
BRANCH  25  35
ATOM     35  O   UNL     1      11.960   1.858  21.602  0.00  0.00    +0.000 OA
BRANCH  35  37
ATOM     36  C   UNL     1       9.830   1.755  22.913  0.00  0.00    +0.000 C 
ATOM     37  C   UNL     1      11.205   1.211  22.661  0.00  0.00    +0.000 C 
ATOM     38  C   UNL     1       9.998   0.433  22.226  0.00  0.00    +0.000 C 
BRANCH  36  39
ATOM     39  S   UNL     1       9.196   1.834  24.530  0.00  0.00    +0.000 S 
BRANCH  39  40
ATOM     40  C   UNL     1       7.937   3.078  24.277  0.00  0.00    +0.000 A 
ATOM     41  C   UNL     1       6.841   3.147  25.137  0.00  0.00    +0.000 A 
ATOM     42  C   UNL     1       8.052   3.981  23.219  0.00  0.00    +0.000 A 
ATOM     43  C   UNL     1       5.858   4.117  24.938  0.00  0.00    +0.000 A 
ATOM     44  C   UNL     1       7.070   4.952  23.022  0.00  0.00    +0.000 A 
ATOM     45  C   UNL     1       5.973   5.020  23.880  0.00  0.00    +0.000 A 
ENDBRANCH  39  40
ENDBRANCH  36  39
ENDBRANCH  35  37
ENDBRANCH  25  35
ENDBRANCH   3  26
TORSDOF 11
ENDMDL
MODEL 8
REMARK minimizedAffinity -7.94136858
REMARK minimizedRMSD -1
REMARK  Name = 53768372
REMARK  11 active torsions:
REMARK  status: ('A' for Active; 'I' for Inactive)
REMARK    1  A    between atoms: S_2  and  C_15
REMARK    2  A    between atoms: S_2  and  C_26
REMARK    3  A    between atoms: O_4  and  N_11
REMARK    4  A    between atoms: O_4  and  C_16
REMARK    5  A    between atoms: O_6  and  C_27
REMARK    6  A    between atoms: N_10  and  CA_19
REMARK    7  A    between atoms: N_12  and  C_24
REMARK    8  A    between atoms: CA_21  and  C_27
REMARK    9  A    between atoms: C_22  and  C_24
REMARK   10  A    between atoms: C_25  and  C_28
REMARK   11  A    between atoms: C_28  and  C_31
REMARK                            x       y       z     vdW  Elec       q    Type
REMARK                         _______ _______ _______ _____ _____    ______ ____
ROOT
ATOM      1  O   UNL     1      14.205   2.765  21.787  0.00  0.00    +0.000 OA
ATOM      2  N   UNL     1      13.320   4.268  23.357  0.00  0.00    +0.000 N 
ATOM      3  C   UNL     1      13.322   3.155  22.532  0.00  0.00    +0.000 C 
ATOM      4  H   UNL     1      12.892   5.016  25.058  0.00  0.00    +0.000 HD
ENDROOT
BRANCH   2   9
ATOM      5  S   UNL     1      16.587   5.721  21.635  0.00  0.00    +0.000 S 
ATOM      6  O   UNL     1      13.557   7.123  24.873  0.00  0.00    +0.000 OA
ATOM      7  N   UNL     1      14.637   7.115  22.777  0.00  0.00    +0.000 N 
ATOM      8  C   UNL     1      14.847   5.843  22.110  0.00  0.00    +0.000 C 
ATOM      9  CA  UNL     1      14.454   5.184  23.450  0.00  0.00    +0.000 C 
ATOM     10  C   UNL     1      14.071   6.623  23.901  0.00  0.00    +0.000 C 
ATOM     11  CA  UNL     1      14.986   8.314  22.244  0.00  0.00    +0.000 C 
ATOM     12  C   UNL     1      15.820   8.400  21.180  0.00  0.00    +0.000 C 
ATOM     13  C   UNL     1      16.510   7.190  20.555  0.00  0.00    +0.000 C 
BRANCH  11  15
ATOM     14  OXT UNL     1      13.300   9.831  22.956  0.00  0.00    +0.000 OA
ATOM     15  C   UNL     1      14.473   9.518  22.916  0.00  0.00    +0.000 C 
BRANCH  15  16
ATOM     16  O   UNL     1      15.500  10.196  23.465  0.00  0.00    +0.000 OA
ATOM     17  H   UNL     1      13.485   5.224  23.278  0.00  0.00    +0.000 HD
ENDBRANCH  15  16
ENDBRANCH  11  15
BRANCH  12  18
ATOM     18  C   UNL     1      16.190   9.687  20.482  0.00  0.00    +0.000 C 
BRANCH  18  19
ATOM     19  N   UNL     1      17.617   9.687  20.027  0.00  0.00    +0.000 N 
ATOM     20  C   UNL     1      17.881   9.884  18.728  0.00  0.00    +0.000 A 
ATOM     21  C   UNL     1      18.584   9.489  20.934  0.00  0.00    +0.000 A 
ATOM     22  C   UNL     1      19.194   9.889  18.278  0.00  0.00    +0.000 A 
ATOM     23  C   UNL     1      19.915   9.483  20.541  0.00  0.00    +0.000 A 
ATOM     24  C   UNL     1      20.219   9.686  19.198  0.00  0.00    +0.000 A 
ENDBRANCH  18  19
ENDBRANCH  12  18
ENDBRANCH   2   9
BRANCH   3  26
ATOM     25  N   UNL     1      10.979   2.784  21.983  0.00  0.00    +0.000 NA
ATOM     26  C   UNL     1      12.042   2.366  22.603  0.00  0.00    +0.000 C 
BRANCH  26  30
ATOM     27  S   UNL     1      11.865  -0.584  25.275  0.00  0.00    +0.000 S 
ATOM     28  N   UNL     1      12.213  -0.113  22.757  0.00  0.00    +0.000 NA
ATOM     29  N   UNL     1      12.301  -2.393  23.373  0.00  0.00    +0.000 N 
ATOM     30  C   UNL     1      12.019   1.101  23.386  0.00  0.00    +0.000 A 
ATOM     31  C   UNL     1      11.815   1.048  24.749  0.00  0.00    +0.000 A 
ATOM     32  C   UNL     1      12.152  -1.071  23.654  0.00  0.00    +0.000 A 
ATOM     33  H   UNL     1      13.387   5.816  22.847  0.00  0.00    +0.000 HD
ATOM     34  H   UNL     1      13.387   5.816  22.847  0.00  0.00    +0.000 HD
ENDBRANCH  26  30
BRANCH  25  35
ATOM     35  O   UNL     1       9.896   1.914  22.163  0.00  0.00    +0.000 OA
BRANCH  35  37
ATOM     36  C   UNL     1       7.519   1.998  22.943  0.00  0.00    +0.000 C 
ATOM     37  C   UNL     1       8.837   2.694  22.777  0.00  0.00    +0.000 C 
ATOM     38  C   UNL     1       8.393   2.243  24.137  0.00  0.00    +0.000 C 
BRANCH  36  39
ATOM     39  S   UNL     1       6.029   2.872  22.746  0.00  0.00    +0.000 S 
BRANCH  39  40
ATOM     40  C   UNL     1       5.646   3.165  24.467  0.00  0.00    +0.000 A 
ATOM     41  C   UNL     1       5.962   4.390  25.054  0.00  0.00    +0.000 A 
ATOM     42  C   UNL     1       5.030   2.168  25.224  0.00  0.00    +0.000 A 
ATOM     43  C   UNL     1       5.664   4.618  26.397  0.00  0.00    +0.000 A 
ATOM     44  C   UNL     1       4.731   2.397  26.567  0.00  0.00    +0.000 A 
ATOM     45  C   UNL     1       5.049   3.621  27.154  0.00  0.00    +0.000 A 
ENDBRANCH  39  40
ENDBRANCH  36  39
ENDBRANCH  35  37
ENDBRANCH  25  35
ENDBRANCH   3  26
TORSDOF 11
ENDMDL
MODEL 9
REMARK minimizedAffinity -7.84933662
REMARK minimizedRMSD -1
REMARK  Name = 53768372
REMARK  11 active torsions:
REMARK  status: ('A' for Active; 'I' for Inactive)
REMARK    1  A    between atoms: S_2  and  C_15
REMARK    2  A    between atoms: S_2  and  C_26
REMARK    3  A    between atoms: O_4  and  N_11
REMARK    4  A    between atoms: O_4  and  C_16
REMARK    5  A    between atoms: O_6  and  C_27
REMARK    6  A    between atoms: N_10  and  CA_19
REMARK    7  A    between atoms: N_12  and  C_24
REMARK    8  A    between atoms: CA_21  and  C_27
REMARK    9  A    between atoms: C_22  and  C_24
REMARK   10  A    between atoms: C_25  and  C_28
REMARK   11  A    between atoms: C_28  and  C_31
REMARK                            x       y       z     vdW  Elec       q    Type
REMARK                         _______ _______ _______ _____ _____    ______ ____
ROOT
ATOM      1  O   UNL     1      22.478   7.211  18.035  0.00  0.00    +0.000 OA
ATOM      2  N   UNL     1      21.400   9.150  18.803  0.00  0.00    +0.000 N 
ATOM      3  C   UNL     1      22.477   8.310  18.565  0.00  0.00    +0.000 C 
ATOM      4  H   UNL     1      20.700  10.923  18.778  0.00  0.00    +0.000 HD
ENDROOT
BRANCH   2   9
ATOM      5  S   UNL     1      18.620   6.331  18.532  0.00  0.00    +0.000 S 
ATOM      6  O   UNL     1      18.719  10.970  18.854  0.00  0.00    +0.000 OA
ATOM      7  N   UNL     1      18.329   8.757  19.570  0.00  0.00    +0.000 N 
ATOM      8  C   UNL     1      19.363   7.763  19.346  0.00  0.00    +0.000 C 
ATOM      9  CA  UNL     1      20.032   8.806  18.424  0.00  0.00    +0.000 C 
ATOM     10  C   UNL     1      18.957   9.791  18.969  0.00  0.00    +0.000 C 
ATOM     11  CA  UNL     1      17.160   8.500  20.212  0.00  0.00    +0.000 C 
ATOM     12  C   UNL     1      16.741   7.232  20.437  0.00  0.00    +0.000 C 
ATOM     13  C   UNL     1      17.475   6.000  19.914  0.00  0.00    +0.000 C 
BRANCH  11  15
ATOM     14  OXT UNL     1      16.441  10.254  21.645  0.00  0.00    +0.000 OA
ATOM     15  C   UNL     1      16.338   9.659  20.592  0.00  0.00    +0.000 C 
BRANCH  15  16
ATOM     16  O   UNL     1      15.474   9.940  19.597  0.00  0.00    +0.000 OA
ATOM     17  H   UNL     1      20.707   9.021  20.362  0.00  0.00    +0.000 HD
ENDBRANCH  15  16
ENDBRANCH  11  15
BRANCH  12  18
ATOM     18  C   UNL     1      15.498   6.865  21.212  0.00  0.00    +0.000 C 
BRANCH  18  19
ATOM     19  N   UNL     1      15.793   5.897  22.317  0.00  0.00    +0.000 N 
ATOM     20  C   UNL     1      16.717   6.222  23.231  0.00  0.00    +0.000 A 
ATOM     21  C   UNL     1      15.122   4.737  22.356  0.00  0.00    +0.000 A 
ATOM     22  C   UNL     1      17.010   5.346  24.266  0.00  0.00    +0.000 A 
ATOM     23  C   UNL     1      15.375   3.822  23.368  0.00  0.00    +0.000 A 
ATOM     24  C   UNL     1      16.329   4.133  24.331  0.00  0.00    +0.000 A 
ENDBRANCH  18  19
ENDBRANCH  12  18
ENDBRANCH   2   9
BRANCH   3  26
ATOM     25  N   UNL     1      23.836   9.564  20.148  0.00  0.00    +0.000 NA
ATOM     26  C   UNL     1      23.785   8.877  19.046  0.00  0.00    +0.000 C 
BRANCH  26  30
ATOM     27  S   UNL     1      27.196   7.677  17.373  0.00  0.00    +0.000 S 
ATOM     28  N   UNL     1      25.306   9.427  17.153  0.00  0.00    +0.000 NA
ATOM     29  N   UNL     1      27.012   9.581  15.524  0.00  0.00    +0.000 N 
ATOM     30  C   UNL     1      25.014   8.631  18.244  0.00  0.00    +0.000 A 
ATOM     31  C   UNL     1      25.921   7.630  18.519  0.00  0.00    +0.000 A 
ATOM     32  C   UNL     1      26.433   9.016  16.617  0.00  0.00    +0.000 A 
ATOM     33  H   UNL     1      22.710   9.007  22.596  0.00  0.00    +0.000 HD
ATOM     34  H   UNL     1      22.710   9.007  22.596  0.00  0.00    +0.000 HD
ENDBRANCH  26  30
BRANCH  25  35
ATOM     35  O   UNL     1      25.137   9.999  20.430  0.00  0.00    +0.000 OA
BRANCH  35  37
ATOM     36  C   UNL     1      26.735  10.066  22.356  0.00  0.00    +0.000 C 
ATOM     37  C   UNL     1      25.375   9.709  21.832  0.00  0.00    +0.000 C 
ATOM     38  C   UNL     1      25.546  10.899  22.730  0.00  0.00    +0.000 C 
BRANCH  36  39
ATOM     39  S   UNL     1      27.516   9.060  23.540  0.00  0.00    +0.000 S 
BRANCH  39  40
ATOM     40  C   UNL     1      27.651  10.247  24.870  0.00  0.00    +0.000 A 
ATOM     41  C   UNL     1      28.623  11.247  24.817  0.00  0.00    +0.000 A 
ATOM     42  C   UNL     1      26.785  10.173  25.961  0.00  0.00    +0.000 A 
ATOM     43  C   UNL     1      28.729  12.172  25.856  0.00  0.00    +0.000 A 
ATOM     44  C   UNL     1      26.891  11.099  26.999  0.00  0.00    +0.000 A 
ATOM     45  C   UNL     1      27.863  12.098  26.947  0.00  0.00    +0.000 A 
ENDBRANCH  39  40
ENDBRANCH  36  39
ENDBRANCH  35  37
ENDBRANCH  25  35
ENDBRANCH   3  26
TORSDOF 11
ENDMDL
MODEL 10
REMARK minimizedAffinity -7.81373692
REMARK minimizedRMSD -1
REMARK  Name = 53768372
REMARK  11 active torsions:
REMARK  status: ('A' for Active; 'I' for Inactive)
REMARK    1  A    between atoms: S_2  and  C_15
REMARK    2  A    between atoms: S_2  and  C_26
REMARK    3  A    between atoms: O_4  and  N_11
REMARK    4  A    between atoms: O_4  and  C_16
REMARK    5  A    between atoms: O_6  and  C_27
REMARK    6  A    between atoms: N_10  and  CA_19
REMARK    7  A    between atoms: N_12  and  C_24
REMARK    8  A    between atoms: CA_21  and  C_27
REMARK    9  A    between atoms: C_22  and  C_24
REMARK   10  A    between atoms: C_25  and  C_28
REMARK   11  A    between atoms: C_28  and  C_31
REMARK                            x       y       z     vdW  Elec       q    Type
REMARK                         _______ _______ _______ _____ _____    ______ ____
ROOT
ATOM      1  O   UNL     1      17.324   9.417  21.179  0.00  0.00    +0.000 OA
ATOM      2  N   UNL     1      19.014   7.790  21.084  0.00  0.00    +0.000 N 
ATOM      3  C   UNL     1      17.810   8.342  21.492  0.00  0.00    +0.000 C 
ATOM      4  H   UNL     1      19.963   6.246  20.495  0.00  0.00    +0.000 HD
ENDROOT
BRANCH   2   9
ATOM      5  S   UNL     1      22.770   8.516  20.026  0.00  0.00    +0.000 S 
ATOM      6  O   UNL     1      18.601   8.557  17.962  0.00  0.00    +0.000 OA
ATOM      7  N   UNL     1      20.780   7.784  18.427  0.00  0.00    +0.000 N 
ATOM      8  C   UNL     1      21.191   7.661  19.814  0.00  0.00    +0.000 C 
ATOM      9  CA  UNL     1      19.922   8.468  20.162  0.00  0.00    +0.000 C 
ATOM     10  C   UNL     1      19.550   8.291  18.661  0.00  0.00    +0.000 C 
ATOM     11  CA  UNL     1      21.563   7.435  17.374  0.00  0.00    +0.000 C 
ATOM     12  C   UNL     1      22.892   7.220  17.521  0.00  0.00    +0.000 C 
ATOM     13  C   UNL     1      23.638   7.441  18.834  0.00  0.00    +0.000 C 
BRANCH  11  15
ATOM     14  OXT UNL     1      20.451   6.355  15.572  0.00  0.00    +0.000 OA
ATOM     15  C   UNL     1      20.916   7.368  16.055  0.00  0.00    +0.000 C 
BRANCH  15  16
ATOM     16  O   UNL     1      20.926   8.590  15.489  0.00  0.00    +0.000 OA
ATOM     17  H   UNL     1      19.594   6.212  20.112  0.00  0.00    +0.000 HD
ENDBRANCH  15  16
ENDBRANCH  11  15
BRANCH  12  18
ATOM     18  C   UNL     1      23.812   6.752  16.418  0.00  0.00    +0.000 C 
BRANCH  18  19
ATOM     19  N   UNL     1      24.917   7.730  16.158  0.00  0.00    +0.000 N 
ATOM     20  C   UNL     1      24.603   8.959  15.725  0.00  0.00    +0.000 A 
ATOM     21  C   UNL     1      26.183   7.344  16.368  0.00  0.00    +0.000 A 
ATOM     22  C   UNL     1      25.605   9.886  15.477  0.00  0.00    +0.000 A 
ATOM     23  C   UNL     1      27.227   8.229  16.135  0.00  0.00    +0.000 A 
ATOM     24  C   UNL     1      26.930   9.512  15.685  0.00  0.00    +0.000 A 
ENDBRANCH  18  19
ENDBRANCH  12  18
ENDBRANCH   2   9
BRANCH   3  26
ATOM     25  N   UNL     1      17.663   6.522  23.102  0.00  0.00    +0.000 NA
ATOM     26  C   UNL     1      17.049   7.460  22.445  0.00  0.00    +0.000 C 
BRANCH  26  30
ATOM     27  S   UNL     1      13.348   8.681  23.272  0.00  0.00    +0.000 S 
ATOM     28  N   UNL     1      14.675   6.772  22.144  0.00  0.00    +0.000 NA
ATOM     29  N   UNL     1      12.325   6.525  22.094  0.00  0.00    +0.000 N 
ATOM     30  C   UNL     1      15.590   7.688  22.626  0.00  0.00    +0.000 A 
ATOM     31  C   UNL     1      15.059   8.788  23.267  0.00  0.00    +0.000 A 
ATOM     32  C   UNL     1      13.463   7.191  22.427  0.00  0.00    +0.000 A 
ATOM     33  H   UNL     1      20.211   7.749  24.366  0.00  0.00    +0.000 HD
ATOM     34  H   UNL     1      20.211   7.749  24.366  0.00  0.00    +0.000 HD
ENDBRANCH  26  30
BRANCH  25  35
ATOM     35  O   UNL     1      16.789   5.817  23.940  0.00  0.00    +0.000 OA
BRANCH  35  37
ATOM     36  C   UNL     1      18.623   4.179  23.469  0.00  0.00    +0.000 C 
ATOM     37  C   UNL     1      17.206   4.427  23.895  0.00  0.00    +0.000 C 
ATOM     38  C   UNL     1      18.234   4.017  24.908  0.00  0.00    +0.000 C 
BRANCH  36  39
ATOM     39  S   UNL     1      19.023   2.791  22.500  0.00  0.00    +0.000 S 
BRANCH  39  40
ATOM     40  C   UNL     1      19.005   3.560  20.887  0.00  0.00    +0.000 A 
ATOM     41  C   UNL     1      17.835   4.152  20.409  0.00  0.00    +0.000 A 
ATOM     42  C   UNL     1      20.160   3.568  20.105  0.00  0.00    +0.000 A 
ATOM     43  C   UNL     1      17.821   4.751  19.149  0.00  0.00    +0.000 A 
ATOM     44  C   UNL     1      20.146   4.169  18.846  0.00  0.00    +0.000 A 
ATOM     45  C   UNL     1      18.977   4.759  18.367  0.00  0.00    +0.000 A 
ENDBRANCH  39  40
ENDBRANCH  36  39
ENDBRANCH  35  37
ENDBRANCH  25  35
ENDBRANCH   3  26
TORSDOF 11
ENDMDL
MODEL 11
REMARK minimizedAffinity -7.77112436
REMARK minimizedRMSD -1
REMARK  Name = 53768372
REMARK  11 active torsions:
REMARK  status: ('A' for Active; 'I' for Inactive)
REMARK    1  A    between atoms: S_2  and  C_15
REMARK    2  A    between atoms: S_2  and  C_26
REMARK    3  A    between atoms: O_4  and  N_11
REMARK    4  A    between atoms: O_4  and  C_16
REMARK    5  A    between atoms: O_6  and  C_27
REMARK    6  A    between atoms: N_10  and  CA_19
REMARK    7  A    between atoms: N_12  and  C_24
REMARK    8  A    between atoms: CA_21  and  C_27
REMARK    9  A    between atoms: C_22  and  C_24
REMARK   10  A    between atoms: C_25  and  C_28
REMARK   11  A    between atoms: C_28  and  C_31
REMARK                            x       y       z     vdW  Elec       q    Type
REMARK                         _______ _______ _______ _____ _____    ______ ____
ROOT
ATOM      1  O   UNL     1      17.190   9.349  20.962  0.00  0.00    +0.000 OA
ATOM      2  N   UNL     1      19.002   7.864  21.105  0.00  0.00    +0.000 N 
ATOM      3  C   UNL     1      17.738   8.350  21.398  0.00  0.00    +0.000 C 
ATOM      4  H   UNL     1      20.100   6.356  20.712  0.00  0.00    +0.000 HD
ENDROOT
BRANCH   2   9
ATOM      5  S   UNL     1      22.755   8.583  20.034  0.00  0.00    +0.000 S 
ATOM      6  O   UNL     1      18.586   8.579  17.972  0.00  0.00    +0.000 OA
ATOM      7  N   UNL     1      20.767   7.819  18.448  0.00  0.00    +0.000 N 
ATOM      8  C   UNL     1      21.179   7.720  19.837  0.00  0.00    +0.000 C 
ATOM      9  CA  UNL     1      19.908   8.530  20.172  0.00  0.00    +0.000 C 
ATOM     10  C   UNL     1      19.536   8.326  18.675  0.00  0.00    +0.000 C 
ATOM     11  CA  UNL     1      21.550   7.455  17.401  0.00  0.00    +0.000 C 
ATOM     12  C   UNL     1      22.880   7.246  17.550  0.00  0.00    +0.000 C 
ATOM     13  C   UNL     1      23.626   7.491  18.859  0.00  0.00    +0.000 C 
BRANCH  11  15
ATOM     14  OXT UNL     1      20.455   6.339  15.610  0.00  0.00    +0.000 OA
ATOM     15  C   UNL     1      20.903   7.365  16.083  0.00  0.00    +0.000 C 
BRANCH  15  16
ATOM     16  O   UNL     1      20.890   8.582  15.506  0.00  0.00    +0.000 OA
ATOM     17  H   UNL     1      19.608   6.221  20.153  0.00  0.00    +0.000 HD
ENDBRANCH  15  16
ENDBRANCH  11  15
BRANCH  12  18
ATOM     18  C   UNL     1      23.801   6.763  16.454  0.00  0.00    +0.000 C 
BRANCH  18  19
ATOM     19  N   UNL     1      24.899   7.742  16.174  0.00  0.00    +0.000 N 
ATOM     20  C   UNL     1      26.168   7.368  16.385  0.00  0.00    +0.000 A 
ATOM     21  C   UNL     1      24.576   8.962  15.721  0.00  0.00    +0.000 A 
ATOM     22  C   UNL     1      27.206   8.254  16.133  0.00  0.00    +0.000 A 
ATOM     23  C   UNL     1      25.573   9.890  15.453  0.00  0.00    +0.000 A 
ATOM     24  C   UNL     1      26.900   9.528  15.662  0.00  0.00    +0.000 A 
ENDBRANCH  18  19
ENDBRANCH  12  18
ENDBRANCH   2   9
BRANCH   3  26
ATOM     25  N   UNL     1      17.617   6.579  23.064  0.00  0.00    +0.000 NA
ATOM     26  C   UNL     1      16.992   7.497  22.390  0.00  0.00    +0.000 C 
BRANCH  26  30
ATOM     27  S   UNL     1      13.305   8.745  23.237  0.00  0.00    +0.000 S 
ATOM     28  N   UNL     1      14.615   6.799  22.152  0.00  0.00    +0.000 NA
ATOM     29  N   UNL     1      12.264   6.551  22.151  0.00  0.00    +0.000 N 
ATOM     30  C   UNL     1      15.537   7.731  22.587  0.00  0.00    +0.000 A 
ATOM     31  C   UNL     1      15.016   8.852  23.199  0.00  0.00    +0.000 A 
ATOM     32  C   UNL     1      13.407   7.228  22.441  0.00  0.00    +0.000 A 
ATOM     33  H   UNL     1      20.186   7.852  24.246  0.00  0.00    +0.000 HD
ATOM     34  H   UNL     1      20.186   7.852  24.246  0.00  0.00    +0.000 HD
ENDBRANCH  26  30
BRANCH  25  35
ATOM     35  O   UNL     1      16.757   5.900  23.936  0.00  0.00    +0.000 OA
BRANCH  35  37
ATOM     36  C   UNL     1      17.806   4.498  25.726  0.00  0.00    +0.000 C 
ATOM     37  C   UNL     1      17.420   4.656  24.285  0.00  0.00    +0.000 C 
ATOM     38  C   UNL     1      16.647   3.724  25.170  0.00  0.00    +0.000 C 
BRANCH  36  39
ATOM     39  S   UNL     1      19.281   3.687  26.161  0.00  0.00    +0.000 S 
BRANCH  39  40
ATOM     40  C   UNL     1      19.398   4.213  27.865  0.00  0.00    +0.000 A 
ATOM     41  C   UNL     1      20.420   5.075  28.262  0.00  0.00    +0.000 A 
ATOM     42  C   UNL     1      18.466   3.759  28.800  0.00  0.00    +0.000 A 
ATOM     43  C   UNL     1      20.511   5.484  29.592  0.00  0.00    +0.000 A 
ATOM     44  C   UNL     1      18.558   4.169  30.130  0.00  0.00    +0.000 A 
ATOM     45  C   UNL     1      19.580   5.031  30.527  0.00  0.00    +0.000 A 
ENDBRANCH  39  40
ENDBRANCH  36  39
ENDBRANCH  35  37
ENDBRANCH  25  35
ENDBRANCH   3  26
TORSDOF 11
ENDMDL
MODEL 12
REMARK minimizedAffinity -7.75618744
REMARK minimizedRMSD -1
REMARK  Name = 53768372
REMARK  11 active torsions:
REMARK  status: ('A' for Active; 'I' for Inactive)
REMARK    1  A    between atoms: S_2  and  C_15
REMARK    2  A    between atoms: S_2  and  C_26
REMARK    3  A    between atoms: O_4  and  N_11
REMARK    4  A    between atoms: O_4  and  C_16
REMARK    5  A    between atoms: O_6  and  C_27
REMARK    6  A    between atoms: N_10  and  CA_19
REMARK    7  A    between atoms: N_12  and  C_24
REMARK    8  A    between atoms: CA_21  and  C_27
REMARK    9  A    between atoms: C_22  and  C_24
REMARK   10  A    between atoms: C_25  and  C_28
REMARK   11  A    between atoms: C_28  and  C_31
REMARK                            x       y       z     vdW  Elec       q    Type
REMARK                         _______ _______ _______ _____ _____    ______ ____
ROOT
ATOM      1  O   UNL     1      19.434   6.550  18.231  0.00  0.00    +0.000 OA
ATOM      2  N   UNL     1      18.895   8.392  19.582  0.00  0.00    +0.000 N 
ATOM      3  C   UNL     1      19.718   7.582  18.816  0.00  0.00    +0.000 C 
ATOM      4  H   UNL     1      18.346  10.158  20.043  0.00  0.00    +0.000 HD
ENDROOT
BRANCH   2   9
ATOM      5  S   UNL     1      16.188   5.777  20.841  0.00  0.00    +0.000 S 
ATOM      6  O   UNL     1      16.454  10.392  20.322  0.00  0.00    +0.000 OA
ATOM      7  N   UNL     1      16.340   8.347  21.491  0.00  0.00    +0.000 N 
ATOM      8  C   UNL     1      17.201   7.257  21.068  0.00  0.00    +0.000 C 
ATOM      9  CA  UNL     1      17.481   8.097  19.803  0.00  0.00    +0.000 C 
ATOM     10  C   UNL     1      16.705   9.229  20.536  0.00  0.00    +0.000 C 
ATOM     11  CA  UNL     1      15.499   8.276  22.555  0.00  0.00    +0.000 C 
ATOM     12  C   UNL     1      15.182   7.091  23.129  0.00  0.00    +0.000 C 
ATOM     13  C   UNL     1      15.649   5.743  22.584  0.00  0.00    +0.000 C 
BRANCH  11  15
ATOM     14  OXT UNL     1      15.526  10.476  23.456  0.00  0.00    +0.000 OA
ATOM     15  C   UNL     1      14.896   9.537  23.014  0.00  0.00    +0.000 C 
BRANCH  15  16
ATOM     16  O   UNL     1      13.559   9.473  22.863  0.00  0.00    +0.000 OA
ATOM     17  H   UNL     1      18.058   8.619  20.063  0.00  0.00    +0.000 HD
ENDBRANCH  15  16
ENDBRANCH  11  15
BRANCH  12  18
ATOM     18  C   UNL     1      14.322   6.937  24.361  0.00  0.00    +0.000 C 
BRANCH  18  19
ATOM     19  N   UNL     1      13.382   5.777  24.246  0.00  0.00    +0.000 N 
ATOM     20  C   UNL     1      12.601   5.682  23.160  0.00  0.00    +0.000 A 
ATOM     21  C   UNL     1      13.351   4.870  25.232  0.00  0.00    +0.000 A 
ATOM     22  C   UNL     1      11.721   4.618  23.027  0.00  0.00    +0.000 A 
ATOM     23  C   UNL     1      12.490   3.785  25.153  0.00  0.00    +0.000 A 
ATOM     24  C   UNL     1      11.668   3.661  24.036  0.00  0.00    +0.000 A 
ENDBRANCH  18  19
ENDBRANCH  12  18
ENDBRANCH   2   9
BRANCH   3  26
ATOM     25  N   UNL     1      21.501   9.122  19.430  0.00  0.00    +0.000 NA
ATOM     26  C   UNL     1      21.134   8.087  18.735  0.00  0.00    +0.000 C 
BRANCH  26  30
ATOM     27  S   UNL     1      23.484   6.646  15.859  0.00  0.00    +0.000 S 
ATOM     28  N   UNL     1      22.866   6.340  18.350  0.00  0.00    +0.000 NA
ATOM     29  N   UNL     1      24.512   4.854  17.535  0.00  0.00    +0.000 N 
ATOM     30  C   UNL     1      22.101   7.378  17.854  0.00  0.00    +0.000 A 
ATOM     31  C   UNL     1      22.297   7.689  16.525  0.00  0.00    +0.000 A 
ATOM     32  C   UNL     1      23.632   5.879  17.388  0.00  0.00    +0.000 A 
ATOM     33  H   UNL     1      17.672   9.419  18.632  0.00  0.00    +0.000 HD
ATOM     34  H   UNL     1      17.672   9.419  18.632  0.00  0.00    +0.000 HD
ENDBRANCH  26  30
BRANCH  25  35
ATOM     35  O   UNL     1      22.851   9.432  19.225  0.00  0.00    +0.000 OA
BRANCH  35  37
ATOM     36  C   UNL     1      24.946   8.852  20.468  0.00  0.00    +0.000 C 
ATOM     37  C   UNL     1      23.509   9.281  20.511  0.00  0.00    +0.000 C 
ATOM     38  C   UNL     1      24.597  10.270  20.813  0.00  0.00    +0.000 C 
BRANCH  36  39
ATOM     39  S   UNL     1      25.582   7.780  21.680  0.00  0.00    +0.000 S 
BRANCH  39  40
ATOM     40  C   UNL     1      26.419   8.982  22.705  0.00  0.00    +0.000 A 
ATOM     41  C   UNL     1      25.844   9.398  23.906  0.00  0.00    +0.000 A 
ATOM     42  C   UNL     1      27.649   9.504  22.304  0.00  0.00    +0.000 A 
ATOM     43  C   UNL     1      26.497  10.336  24.705  0.00  0.00    +0.000 A 
ATOM     44  C   UNL     1      28.303  10.442  23.104  0.00  0.00    +0.000 A 
ATOM     45  C   UNL     1      27.727  10.859  24.304  0.00  0.00    +0.000 A 
ENDBRANCH  39  40
ENDBRANCH  36  39
ENDBRANCH  35  37
ENDBRANCH  25  35
ENDBRANCH   3  26
TORSDOF 11
ENDMDL
MODEL 13
REMARK minimizedAffinity -7.34328508
REMARK minimizedRMSD -1
REMARK  Name = 53768372
REMARK  11 active torsions:
REMARK  status: ('A' for Active; 'I' for Inactive)
REMARK    1  A    between atoms: S_2  and  C_15
REMARK    2  A    between atoms: S_2  and  C_26
REMARK    3  A    between atoms: O_4  and  N_11
REMARK    4  A    between atoms: O_4  and  C_16
REMARK    5  A    between atoms: O_6  and  C_27
REMARK    6  A    between atoms: N_10  and  CA_19
REMARK    7  A    between atoms: N_12  and  C_24
REMARK    8  A    between atoms: CA_21  and  C_27
REMARK    9  A    between atoms: C_22  and  C_24
REMARK   10  A    between atoms: C_25  and  C_28
REMARK   11  A    between atoms: C_28  and  C_31
REMARK                            x       y       z     vdW  Elec       q    Type
REMARK                         _______ _______ _______ _____ _____    ______ ____
ROOT
ATOM      1  O   UNL     1      20.829   2.597  18.406  0.00  0.00    +0.000 OA
ATOM      2  N   UNL     1      19.470   4.392  19.068  0.00  0.00    +0.000 N 
ATOM      3  C   UNL     1      20.396   3.730  18.278  0.00  0.00    +0.000 C 
ATOM      4  H   UNL     1      17.941   5.527  19.155  0.00  0.00    +0.000 HD
ENDROOT
BRANCH   2   9
ATOM      5  S   UNL     1      18.763   4.594  22.969  0.00  0.00    +0.000 S 
ATOM      6  O   UNL     1      16.798   2.569  19.271  0.00  0.00    +0.000 OA
ATOM      7  N   UNL     1      16.990   4.100  21.054  0.00  0.00    +0.000 N 
ATOM      8  C   UNL     1      18.255   4.788  21.245  0.00  0.00    +0.000 C 
ATOM      9  CA  UNL     1      18.846   3.778  20.238  0.00  0.00    +0.000 C 
ATOM     10  C   UNL     1      17.372   3.334  20.010  0.00  0.00    +0.000 C 
ATOM     11  CA  UNL     1      15.890   4.319  21.818  0.00  0.00    +0.000 C 
ATOM     12  C   UNL     1      15.967   4.980  22.998  0.00  0.00    +0.000 C 
ATOM     13  C   UNL     1      17.283   5.443  23.616  0.00  0.00    +0.000 C 
BRANCH  11  15
ATOM     14  OXT UNL     1      13.882   4.294  20.546  0.00  0.00    +0.000 OA
ATOM     15  C   UNL     1      14.621   3.748  21.340  0.00  0.00    +0.000 C 
BRANCH  15  16
ATOM     16  O   UNL     1      14.425   2.547  21.917  0.00  0.00    +0.000 OA
ATOM     17  H   UNL     1      18.213   5.258  19.250  0.00  0.00    +0.000 HD
ENDBRANCH  15  16
ENDBRANCH  11  15
BRANCH  12  18
ATOM     18  C   UNL     1      14.779   5.333  23.862  0.00  0.00    +0.000 C 
BRANCH  18  19
ATOM     19  N   UNL     1      14.055   6.541  23.352  0.00  0.00    +0.000 N 
ATOM     20  C   UNL     1      14.656   7.736  23.433  0.00  0.00    +0.000 A 
ATOM     21  C   UNL     1      12.829   6.388  22.832  0.00  0.00    +0.000 A 
ATOM     22  C   UNL     1      14.009   8.873  22.968  0.00  0.00    +0.000 A 
ATOM     23  C   UNL     1      12.135   7.489  22.353  0.00  0.00    +0.000 A 
ATOM     24  C   UNL     1      12.735   8.743  22.423  0.00  0.00    +0.000 A 
ENDBRANCH  18  19
ENDBRANCH  12  18
ENDBRANCH   2   9
BRANCH   3  26
ATOM     25  N   UNL     1      20.983   5.859  17.252  0.00  0.00    +0.000 NA
ATOM     26  C   UNL     1      20.902   4.567  17.134  0.00  0.00    +0.000 C 
BRANCH  26  30
ATOM     27  S   UNL     1      22.664   2.734  14.067  0.00  0.00    +0.000 S 
ATOM     28  N   UNL     1      20.390   3.663  14.871  0.00  0.00    +0.000 NA
ATOM     29  N   UNL     1      20.371   2.690  12.718  0.00  0.00    +0.000 N 
ATOM     30  C   UNL     1      21.312   3.890  15.875  0.00  0.00    +0.000 A 
ATOM     31  C   UNL     1      22.596   3.456  15.621  0.00  0.00    +0.000 A 
ATOM     32  C   UNL     1      20.990   3.060  13.871  0.00  0.00    +0.000 A 
ATOM     33  H   UNL     1      22.142   7.164  19.477  0.00  0.00    +0.000 HD
ATOM     34  H   UNL     1      22.142   7.164  19.477  0.00  0.00    +0.000 HD
ENDBRANCH  26  30
BRANCH  25  35
ATOM     35  O   UNL     1      21.480   6.457  16.088  0.00  0.00    +0.000 OA
BRANCH  35  37
ATOM     36  C   UNL     1      20.661   8.331  17.532  0.00  0.00    +0.000 C 
ATOM     37  C   UNL     1      21.254   7.884  16.228  0.00  0.00    +0.000 C 
ATOM     38  C   UNL     1      22.109   8.588  17.241  0.00  0.00    +0.000 C 
BRANCH  36  39
ATOM     39  S   UNL     1      19.523   9.645  17.579  0.00  0.00    +0.000 S 
BRANCH  39  40
ATOM     40  C   UNL     1      18.747   9.288  19.149  0.00  0.00    +0.000 A 
ATOM     41  C   UNL     1      17.453   9.741  19.408  0.00  0.00    +0.000 A 
ATOM     42  C   UNL     1      19.435   8.554  20.116  0.00  0.00    +0.000 A 
ATOM     43  C   UNL     1      16.848   9.463  20.633  0.00  0.00    +0.000 A 
ATOM     44  C   UNL     1      18.829   8.276  21.341  0.00  0.00    +0.000 A 
ATOM     45  C   UNL     1      17.536   8.730  21.601  0.00  0.00    +0.000 A 
ENDBRANCH  39  40
ENDBRANCH  36  39
ENDBRANCH  35  37
ENDBRANCH  25  35
ENDBRANCH   3  26
TORSDOF 11
ENDMDL
MODEL 14
REMARK minimizedAffinity -7.32390499
REMARK minimizedRMSD -1
REMARK  Name = 53768372
REMARK  11 active torsions:
REMARK  status: ('A' for Active; 'I' for Inactive)
REMARK    1  A    between atoms: S_2  and  C_15
REMARK    2  A    between atoms: S_2  and  C_26
REMARK    3  A    between atoms: O_4  and  N_11
REMARK    4  A    between atoms: O_4  and  C_16
REMARK    5  A    between atoms: O_6  and  C_27
REMARK    6  A    between atoms: N_10  and  CA_19
REMARK    7  A    between atoms: N_12  and  C_24
REMARK    8  A    between atoms: CA_21  and  C_27
REMARK    9  A    between atoms: C_22  and  C_24
REMARK   10  A    between atoms: C_25  and  C_28
REMARK   11  A    between atoms: C_28  and  C_31
REMARK                            x       y       z     vdW  Elec       q    Type
REMARK                         _______ _______ _______ _____ _____    ______ ____
ROOT
ATOM      1  O   UNL     1      10.353   1.821  21.753  0.00  0.00    +0.000 OA
ATOM      2  N   UNL     1      10.733   2.735  23.882  0.00  0.00    +0.000 N 
ATOM      3  C   UNL     1       9.997   2.120  22.881  0.00  0.00    +0.000 C 
ATOM      4  H   UNL     1      11.203   2.806  25.727  0.00  0.00    +0.000 HD
ENDROOT
BRANCH   2   9
ATOM      5  S   UNL     1      13.404   4.642  21.650  0.00  0.00    +0.000 S 
ATOM      6  O   UNL     1      13.001   3.375  26.107  0.00  0.00    +0.000 OA
ATOM      7  N   UNL     1      13.080   4.859  24.276  0.00  0.00    +0.000 N 
ATOM      8  C   UNL     1      12.313   4.535  23.087  0.00  0.00    +0.000 C 
ATOM      9  CA  UNL     1      12.128   3.132  23.705  0.00  0.00    +0.000 C 
ATOM     10  C   UNL     1      12.778   3.746  24.979  0.00  0.00    +0.000 C 
ATOM     11  CA  UNL     1      13.810   5.995  24.418  0.00  0.00    +0.000 C 
ATOM     12  C   UNL     1      14.116   6.777  23.355  0.00  0.00    +0.000 C 
ATOM     13  C   UNL     1      13.764   6.411  21.915  0.00  0.00    +0.000 C 
BRANCH  11  15
ATOM     14  OXT UNL     1      15.370   5.905  26.209  0.00  0.00    +0.000 OA
ATOM     15  C   UNL     1      14.311   6.303  25.766  0.00  0.00    +0.000 C 
BRANCH  15  16
ATOM     16  O   UNL     1      13.419   7.081  26.408  0.00  0.00    +0.000 OA
ATOM     17  H   UNL     1      16.035   6.824  21.728  0.00  0.00    +0.000 HD
ENDBRANCH  15  16
ENDBRANCH  11  15
BRANCH  12  18
ATOM     18  C   UNL     1      14.852   8.093  23.442  0.00  0.00    +0.000 C 
BRANCH  18  19
ATOM     19  N   UNL     1      16.170   8.045  22.730  0.00  0.00    +0.000 N 
ATOM     20  C   UNL     1      16.940   6.957  22.869  0.00  0.00    +0.000 A 
ATOM     21  C   UNL     1      16.536   9.092  21.978  0.00  0.00    +0.000 A 
ATOM     22  C   UNL     1      18.165   6.885  22.221  0.00  0.00    +0.000 A 
ATOM     23  C   UNL     1      17.751   9.076  21.308  0.00  0.00    +0.000 A 
ATOM     24  C   UNL     1      18.571   7.959  21.433  0.00  0.00    +0.000 A 
ENDBRANCH  18  19
ENDBRANCH  12  18
ENDBRANCH   2   9
BRANCH   3  26
ATOM     25  N   UNL     1       8.183   0.576  23.384  0.00  0.00    +0.000 NA
ATOM     26  C   UNL     1       8.583   1.809  23.295  0.00  0.00    +0.000 C 
BRANCH  26  30
ATOM     27  S   UNL     1       6.147   4.959  23.406  0.00  0.00    +0.000 S 
ATOM     28  N   UNL     1       7.249   3.162  24.903  0.00  0.00    +0.000 NA
ATOM     29  N   UNL     1       5.861   4.702  26.039  0.00  0.00    +0.000 N 
ATOM     30  C   UNL     1       7.661   2.934  23.604  0.00  0.00    +0.000 A 
ATOM     31  C   UNL     1       7.168   3.804  22.654  0.00  0.00    +0.000 A 
ATOM     32  C   UNL     1       6.448   4.204  24.918  0.00  0.00    +0.000 A 
ATOM     33  H   UNL     1      11.583   1.103  21.227  0.00  0.00    +0.000 HD
ATOM     34  H   UNL     1      11.583   1.103  21.227  0.00  0.00    +0.000 HD
ENDBRANCH  26  30
BRANCH  25  35
ATOM     35  O   UNL     1       6.845   0.492  23.788  0.00  0.00    +0.000 OA
BRANCH  35  37
ATOM     36  C   UNL     1       6.536   0.077  26.237  0.00  0.00    +0.000 C 
ATOM     37  C   UNL     1       6.800  -0.477  24.868  0.00  0.00    +0.000 C 
ATOM     38  C   UNL     1       5.461  -0.678  25.515  0.00  0.00    +0.000 C 
BRANCH  36  39
ATOM     39  S   UNL     1       7.313  -0.611  27.632  0.00  0.00    +0.000 S 
BRANCH  39  40
ATOM     40  C   UNL     1       7.691   0.897  28.515  0.00  0.00    +0.000 A 
ATOM     41  C   UNL     1       8.825   0.967  29.324  0.00  0.00    +0.000 A 
ATOM     42  C   UNL     1       6.851   2.004  28.395  0.00  0.00    +0.000 A 
ATOM     43  C   UNL     1       9.120   2.143  30.013  0.00  0.00    +0.000 A 
ATOM     44  C   UNL     1       7.147   3.181  29.084  0.00  0.00    +0.000 A 
ATOM     45  C   UNL     1       8.280   3.250  29.893  0.00  0.00    +0.000 A 
ENDBRANCH  39  40
ENDBRANCH  36  39
ENDBRANCH  35  37
ENDBRANCH  25  35
ENDBRANCH   3  26
TORSDOF 11
ENDMDL
MODEL 15
REMARK minimizedAffinity -7.30112743
REMARK minimizedRMSD -1
REMARK  Name = 53768372
REMARK  11 active torsions:
REMARK  status: ('A' for Active; 'I' for Inactive)
REMARK    1  A    between atoms: S_2  and  C_15
REMARK    2  A    between atoms: S_2  and  C_26
REMARK    3  A    between atoms: O_4  and  N_11
REMARK    4  A    between atoms: O_4  and  C_16
REMARK    5  A    between atoms: O_6  and  C_27
REMARK    6  A    between atoms: N_10  and  CA_19
REMARK    7  A    between atoms: N_12  and  C_24
REMARK    8  A    between atoms: CA_21  and  C_27
REMARK    9  A    between atoms: C_22  and  C_24
REMARK   10  A    between atoms: C_25  and  C_28
REMARK   11  A    between atoms: C_28  and  C_31
REMARK                            x       y       z     vdW  Elec       q    Type
REMARK                         _______ _______ _______ _____ _____    ______ ____
ROOT
ATOM      1  O   UNL     1      21.826   9.133  18.977  0.00  0.00    +0.000 OA
ATOM      2  N   UNL     1      21.361   6.994  18.129  0.00  0.00    +0.000 N 
ATOM      3  C   UNL     1      22.156   8.081  18.455  0.00  0.00    +0.000 C 
ATOM      4  H   UNL     1      21.150   5.100  18.102  0.00  0.00    +0.000 HD
ENDROOT
BRANCH   2   9
ATOM      5  S   UNL     1      18.443   6.118  20.673  0.00  0.00    +0.000 S 
ATOM      6  O   UNL     1      19.016   8.934  17.015  0.00  0.00    +0.000 OA
ATOM      7  N   UNL     1      18.722   8.364  19.285  0.00  0.00    +0.000 N 
ATOM      8  C   UNL     1      19.533   7.297  19.843  0.00  0.00    +0.000 C 
ATOM      9  CA  UNL     1      19.923   6.963  18.387  0.00  0.00    +0.000 C 
ATOM     10  C   UNL     1      19.185   8.282  18.019  0.00  0.00    +0.000 C 
ATOM     11  CA  UNL     1      17.830   9.091  20.006  0.00  0.00    +0.000 C 
ATOM     12  C   UNL     1      17.415   8.688  21.231  0.00  0.00    +0.000 C 
ATOM     13  C   UNL     1      17.823   7.358  21.860  0.00  0.00    +0.000 C 
BRANCH  11  15
ATOM     14  OXT UNL     1      17.901  11.337  19.229  0.00  0.00    +0.000 OA
ATOM     15  C   UNL     1      17.284  10.300  19.370  0.00  0.00    +0.000 C 
BRANCH  15  16
ATOM     16  O   UNL     1      16.017  10.066  18.979  0.00  0.00    +0.000 OA
ATOM     17  H   UNL     1      20.904   7.877  18.608  0.00  0.00    +0.000 HD
ENDBRANCH  15  16
ENDBRANCH  11  15
BRANCH  12  18
ATOM     18  C   UNL     1      16.490   9.479  22.126  0.00  0.00    +0.000 C 
BRANCH  18  19
ATOM     19  N   UNL     1      15.320   8.662  22.582  0.00  0.00    +0.000 N 
ATOM     20  C   UNL     1      14.211   8.645  21.831  0.00  0.00    +0.000 A 
ATOM     21  C   UNL     1      15.420   7.975  23.729  0.00  0.00    +0.000 A 
ATOM     22  C   UNL     1      13.112   7.898  22.229  0.00  0.00    +0.000 A 
ATOM     23  C   UNL     1      14.352   7.211  24.177  0.00  0.00    +0.000 A 
ATOM     24  C   UNL     1      13.188   7.174  23.416  0.00  0.00    +0.000 A 
ENDBRANCH  18  19
ENDBRANCH  12  18
ENDBRANCH   2   9
BRANCH   3  26
ATOM     25  N   UNL     1      24.495   8.760  18.449  0.00  0.00    +0.000 NA
ATOM     26  C   UNL     1      23.604   7.884  18.091  0.00  0.00    +0.000 C 
BRANCH  26  30
ATOM     27  S   UNL     1      24.515   5.046  15.448  0.00  0.00    +0.000 S 
ATOM     28  N   UNL     1      24.350   5.511  17.985  0.00  0.00    +0.000 NA
ATOM     29  N   UNL     1      25.038   3.325  17.408  0.00  0.00    +0.000 N 
ATOM     30  C   UNL     1      23.993   6.670  17.324  0.00  0.00    +0.000 A 
ATOM     31  C   UNL     1      24.022   6.611  15.946  0.00  0.00    +0.000 A 
ATOM     32  C   UNL     1      24.645   4.589  17.097  0.00  0.00    +0.000 A 
ATOM     33  H   UNL     1      21.050  10.576  18.014  0.00  0.00    +0.000 HD
ATOM     34  H   UNL     1      21.050  10.576  18.014  0.00  0.00    +0.000 HD
ENDBRANCH  26  30
BRANCH  25  35
ATOM     35  O   UNL     1      25.779   8.397  18.024  0.00  0.00    +0.000 OA
BRANCH  35  37
ATOM     36  C   UNL     1      27.580   9.620  19.261  0.00  0.00    +0.000 C 
ATOM     37  C   UNL     1      26.600   9.591  18.126  0.00  0.00    +0.000 C 
ATOM     38  C   UNL     1      28.064   9.406  17.858  0.00  0.00    +0.000 C 
BRANCH  36  39
ATOM     39  S   UNL     1      27.919  11.107  20.096  0.00  0.00    +0.000 S 
BRANCH  39  40
ATOM     40  C   UNL     1      26.999  10.802  21.597  0.00  0.00    +0.000 A 
ATOM     41  C   UNL     1      25.604  10.842  21.582  0.00  0.00    +0.000 A 
ATOM     42  C   UNL     1      27.675  10.525  22.786  0.00  0.00    +0.000 A 
ATOM     43  C   UNL     1      24.887  10.606  22.754  0.00  0.00    +0.000 A 
ATOM     44  C   UNL     1      26.957  10.288  23.958  0.00  0.00    +0.000 A 
ATOM     45  C   UNL     1      25.563  10.329  23.943  0.00  0.00    +0.000 A 
ENDBRANCH  39  40
ENDBRANCH  36  39
ENDBRANCH  35  37
ENDBRANCH  25  35
ENDBRANCH   3  26
TORSDOF 11
ENDMDL
MODEL 16
REMARK minimizedAffinity -7.28846407
REMARK minimizedRMSD -1
REMARK  Name = 53768372
REMARK  11 active torsions:
REMARK  status: ('A' for Active; 'I' for Inactive)
REMARK    1  A    between atoms: S_2  and  C_15
REMARK    2  A    between atoms: S_2  and  C_26
REMARK    3  A    between atoms: O_4  and  N_11
REMARK    4  A    between atoms: O_4  and  C_16
REMARK    5  A    between atoms: O_6  and  C_27
REMARK    6  A    between atoms: N_10  and  CA_19
REMARK    7  A    between atoms: N_12  and  C_24
REMARK    8  A    between atoms: CA_21  and  C_27
REMARK    9  A    between atoms: C_22  and  C_24
REMARK   10  A    between atoms: C_25  and  C_28
REMARK   11  A    between atoms: C_28  and  C_31
REMARK                            x       y       z     vdW  Elec       q    Type
REMARK                         _______ _______ _______ _____ _____    ______ ____
ROOT
ATOM      1  O   UNL     1      12.284   3.916  25.125  0.00  0.00    +0.000 OA
ATOM      2  N   UNL     1      12.843   5.020  23.130  0.00  0.00    +0.000 N 
ATOM      3  C   UNL     1      12.159   4.117  23.928  0.00  0.00    +0.000 C 
ATOM      4  H   UNL     1      12.771   6.320  21.738  0.00  0.00    +0.000 HD
ENDROOT
BRANCH   2   9
ATOM      5  S   UNL     1      16.667   5.518  24.068  0.00  0.00    +0.000 S 
ATOM      6  O   UNL     1      13.071   8.248  22.950  0.00  0.00    +0.000 OA
ATOM      7  N   UNL     1      15.149   7.172  22.652  0.00  0.00    +0.000 N 
ATOM      8  C   UNL     1      15.251   5.760  22.972  0.00  0.00    +0.000 C 
ATOM      9  CA  UNL     1      13.874   5.913  23.654  0.00  0.00    +0.000 C 
ATOM     10  C   UNL     1      13.860   7.335  23.022  0.00  0.00    +0.000 C 
ATOM     11  CA  UNL     1      16.171   7.907  22.144  0.00  0.00    +0.000 C 
ATOM     12  C   UNL     1      17.448   7.455  22.169  0.00  0.00    +0.000 C 
ATOM     13  C   UNL     1      17.863   6.151  22.844  0.00  0.00    +0.000 C 
BRANCH  11  15
ATOM     14  OXT UNL     1      15.962  10.272  22.264  0.00  0.00    +0.000 OA
ATOM     15  C   UNL     1      15.841   9.244  21.628  0.00  0.00    +0.000 C 
BRANCH  15  16
ATOM     16  O   UNL     1      15.393   9.137  20.362  0.00  0.00    +0.000 OA
ATOM     17  H   UNL     1      19.504   7.535  23.420  0.00  0.00    +0.000 HD
ENDBRANCH  15  16
ENDBRANCH  11  15
BRANCH  12  18
ATOM     18  C   UNL     1      18.625   8.175  21.554  0.00  0.00    +0.000 C 
BRANCH  18  19
ATOM     19  N   UNL     1      18.853   7.763  20.132  0.00  0.00    +0.000 N 
ATOM     20  C   UNL     1      18.452   6.546  19.740  0.00  0.00    +0.000 A 
ATOM     21  C   UNL     1      19.450   8.625  19.297  0.00  0.00    +0.000 A 
ATOM     22  C   UNL     1      18.650   6.137  18.429  0.00  0.00    +0.000 A 
ATOM     23  C   UNL     1      19.674   8.270  17.975  0.00  0.00    +0.000 A 
ATOM     24  C   UNL     1      19.268   7.012  17.540  0.00  0.00    +0.000 A 
ENDBRANCH  18  19
ENDBRANCH  12  18
ENDBRANCH   2   9
BRANCH   3  26
ATOM     25  N   UNL     1      11.527   2.541  22.183  0.00  0.00    +0.000 NA
ATOM     26  C   UNL     1      11.148   3.303  23.165  0.00  0.00    +0.000 C 
BRANCH  26  30
ATOM     27  S   UNL     1       7.474   2.952  24.665  0.00  0.00    +0.000 S 
ATOM     28  N   UNL     1       8.885   4.324  22.989  0.00  0.00    +0.000 NA
ATOM     29  N   UNL     1       6.615   4.964  23.150  0.00  0.00    +0.000 N 
ATOM     30  C   UNL     1       9.717   3.381  23.561  0.00  0.00    +0.000 A 
ATOM     31  C   UNL     1       9.132   2.548  24.492  0.00  0.00    +0.000 A 
ATOM     32  C   UNL     1       7.680   4.191  23.495  0.00  0.00    +0.000 A 
ATOM     33  H   UNL     1      13.719   0.751  22.359  0.00  0.00    +0.000 HD
ATOM     34  H   UNL     1      13.719   0.751  22.359  0.00  0.00    +0.000 HD
ENDBRANCH  26  30
BRANCH  25  35
ATOM     35  O   UNL     1      10.447   1.863  21.605  0.00  0.00    +0.000 OA
BRANCH  35  37
ATOM     36  C   UNL     1      10.889  -0.222  22.919  0.00  0.00    +0.000 C 
ATOM     37  C   UNL     1      10.807   0.456  21.583  0.00  0.00    +0.000 C 
ATOM     38  C   UNL     1       9.733  -0.504  22.005  0.00  0.00    +0.000 C 
BRANCH  36  39
ATOM     39  S   UNL     1      12.094  -1.439  23.217  0.00  0.00    +0.000 S 
BRANCH  39  40
ATOM     40  C   UNL     1      13.551  -0.405  23.182  0.00  0.00    +0.000 A 
ATOM     41  C   UNL     1      14.498  -0.565  22.170  0.00  0.00    +0.000 A 
ATOM     42  C   UNL     1      13.743   0.564  24.168  0.00  0.00    +0.000 A 
ATOM     43  C   UNL     1      15.635   0.242  22.144  0.00  0.00    +0.000 A 
ATOM     44  C   UNL     1      14.880   1.371  24.141  0.00  0.00    +0.000 A 
ATOM     45  C   UNL     1      15.827   1.210  23.130  0.00  0.00    +0.000 A 
ENDBRANCH  39  40
ENDBRANCH  36  39
ENDBRANCH  35  37
ENDBRANCH  25  35
ENDBRANCH   3  26
TORSDOF 11
ENDMDL
MODEL 17
REMARK minimizedAffinity -7.28358316
REMARK minimizedRMSD -1
REMARK  Name = 53768372
REMARK  11 active torsions:
REMARK  status: ('A' for Active; 'I' for Inactive)
REMARK    1  A    between atoms: S_2  and  C_15
REMARK    2  A    between atoms: S_2  and  C_26
REMARK    3  A    between atoms: O_4  and  N_11
REMARK    4  A    between atoms: O_4  and  C_16
REMARK    5  A    between atoms: O_6  and  C_27
REMARK    6  A    between atoms: N_10  and  CA_19
REMARK    7  A    between atoms: N_12  and  C_24
REMARK    8  A    between atoms: CA_21  and  C_27
REMARK    9  A    between atoms: C_22  and  C_24
REMARK   10  A    between atoms: C_25  and  C_28
REMARK   11  A    between atoms: C_28  and  C_31
REMARK                            x       y       z     vdW  Elec       q    Type
REMARK                         _______ _______ _______ _____ _____    ______ ____
ROOT
ATOM      1  O   UNL     1      20.521   7.550  15.879  0.00  0.00    +0.000 OA
ATOM      2  N   UNL     1      20.615   6.862  18.121  0.00  0.00    +0.000 N 
ATOM      3  C   UNL     1      21.127   7.211  16.882  0.00  0.00    +0.000 C 
ATOM      4  H   UNL     1      20.746   6.997  20.018  0.00  0.00    +0.000 HD
ENDROOT
BRANCH   2   9
ATOM      5  S   UNL     1      17.608   5.142  20.060  0.00  0.00    +0.000 S 
ATOM      6  O   UNL     1      18.514   9.327  18.242  0.00  0.00    +0.000 OA
ATOM      7  N   UNL     1      18.150   7.739  19.947  0.00  0.00    +0.000 N 
ATOM      8  C   UNL     1      18.830   6.459  19.860  0.00  0.00    +0.000 C 
ATOM      9  CA  UNL     1      19.182   6.854  18.409  0.00  0.00    +0.000 C 
ATOM     10  C   UNL     1      18.603   8.249  18.782  0.00  0.00    +0.000 C 
ATOM     11  CA  UNL     1      17.347   8.098  20.981  0.00  0.00    +0.000 C 
ATOM     12  C   UNL     1      16.885   7.185  21.869  0.00  0.00    +0.000 C 
ATOM     13  C   UNL     1      17.134   5.685  21.736  0.00  0.00    +0.000 C 
BRANCH  11  15
ATOM     14  OXT UNL     1      17.533  10.355  21.705  0.00  0.00    +0.000 OA
ATOM     15  C   UNL     1      16.947   9.512  21.056  0.00  0.00    +0.000 C 
BRANCH  15  16
ATOM     16  O   UNL     1      15.848   9.706  20.302  0.00  0.00    +0.000 OA
ATOM     17  H   UNL     1      20.737   7.515  19.960  0.00  0.00    +0.000 HD
ENDBRANCH  15  16
ENDBRANCH  11  15
BRANCH  12  18
ATOM     18  C   UNL     1      16.056   7.517  23.088  0.00  0.00    +0.000 C 
BRANCH  18  19
ATOM     19  N   UNL     1      14.587   7.437  22.804  0.00  0.00    +0.000 N 
ATOM     20  C   UNL     1      13.869   8.568  22.795  0.00  0.00    +0.000 A 
ATOM     21  C   UNL     1      14.039   6.236  22.569  0.00  0.00    +0.000 A 
ATOM     22  C   UNL     1      12.506   8.525  22.535  0.00  0.00    +0.000 A 
ATOM     23  C   UNL     1      12.681   6.132  22.304  0.00  0.00    +0.000 A 
ATOM     24  C   UNL     1      11.910   7.291  22.287  0.00  0.00    +0.000 A 
ENDBRANCH  18  19
ENDBRANCH  12  18
ENDBRANCH   2   9
BRANCH   3  26
ATOM     25  N   UNL     1      23.223   6.645  15.780  0.00  0.00    +0.000 NA
ATOM     26  C   UNL     1      22.630   7.141  16.824  0.00  0.00    +0.000 C 
BRANCH  26  30
ATOM     27  S   UNL     1      24.742   7.819  20.133  0.00  0.00    +0.000 S 
ATOM     28  N   UNL     1      23.719   8.999  18.074  0.00  0.00    +0.000 NA
ATOM     29  N   UNL     1      24.875  10.416  19.572  0.00  0.00    +0.000 N 
ATOM     30  C   UNL     1      23.418   7.654  17.977  0.00  0.00    +0.000 A 
ATOM     31  C   UNL     1      23.888   6.856  18.999  0.00  0.00    +0.000 A 
ATOM     32  C   UNL     1      24.414   9.201  19.170  0.00  0.00    +0.000 A 
ATOM     33  H   UNL     1      19.856   4.776  16.129  0.00  0.00    +0.000 HD
ATOM     34  H   UNL     1      19.856   4.776  16.129  0.00  0.00    +0.000 HD
ENDBRANCH  26  30
BRANCH  25  35
ATOM     35  O   UNL     1      24.617   6.672  15.912  0.00  0.00    +0.000 OA
BRANCH  35  37
ATOM     36  C   UNL     1      24.029   4.270  15.526  0.00  0.00    +0.000 C 
ATOM     37  C   UNL     1      25.058   5.289  15.915  0.00  0.00    +0.000 C 
ATOM     38  C   UNL     1      25.134   4.620  14.574  0.00  0.00    +0.000 C 
BRANCH  36  39
ATOM     39  S   UNL     1      23.992   2.714  16.300  0.00  0.00    +0.000 S 
BRANCH  39  40
ATOM     40  C   UNL     1      22.227   2.559  16.536  0.00  0.00    +0.000 A 
ATOM     41  C   UNL     1      21.530   1.513  15.930  0.00  0.00    +0.000 A 
ATOM     42  C   UNL     1      21.545   3.486  17.325  0.00  0.00    +0.000 A 
ATOM     43  C   UNL     1      20.152   1.394  16.113  0.00  0.00    +0.000 A 
ATOM     44  C   UNL     1      20.167   3.365  17.509  0.00  0.00    +0.000 A 
ATOM     45  C   UNL     1      19.471   2.320  16.902  0.00  0.00    +0.000 A 
ENDBRANCH  39  40
ENDBRANCH  36  39
ENDBRANCH  35  37
ENDBRANCH  25  35
ENDBRANCH   3  26
TORSDOF 11
ENDMDL
MODEL 18
REMARK minimizedAffinity -7.20802021
REMARK minimizedRMSD -1
REMARK  Name = 53768372
REMARK  11 active torsions:
REMARK  status: ('A' for Active; 'I' for Inactive)
REMARK    1  A    between atoms: S_2  and  C_15
REMARK    2  A    between atoms: S_2  and  C_26
REMARK    3  A    between atoms: O_4  and  N_11
REMARK    4  A    between atoms: O_4  and  C_16
REMARK    5  A    between atoms: O_6  and  C_27
REMARK    6  A    between atoms: N_10  and  CA_19
REMARK    7  A    between atoms: N_12  and  C_24
REMARK    8  A    between atoms: CA_21  and  C_27
REMARK    9  A    between atoms: C_22  and  C_24
REMARK   10  A    between atoms: C_25  and  C_28
REMARK   11  A    between atoms: C_28  and  C_31
REMARK                            x       y       z     vdW  Elec       q    Type
REMARK                         _______ _______ _______ _____ _____    ______ ____
ROOT
ATOM      1  O   UNL     1      19.706   5.573  15.019  0.00  0.00    +0.000 OA
ATOM      2  N   UNL     1      19.987   5.101  17.302  0.00  0.00    +0.000 N 
ATOM      3  C   UNL     1      20.333   5.113  15.960  0.00  0.00    +0.000 C 
ATOM      4  H   UNL     1      20.536   5.339  19.111  0.00  0.00    +0.000 HD
ENDROOT
BRANCH   2   9
ATOM      5  S   UNL     1      16.908   4.757  19.783  0.00  0.00    +0.000 S 
ATOM      6  O   UNL     1      19.102   8.208  17.567  0.00  0.00    +0.000 OA
ATOM      7  N   UNL     1      18.419   6.909  19.412  0.00  0.00    +0.000 N 
ATOM      8  C   UNL     1      18.504   5.462  19.312  0.00  0.00    +0.000 C 
ATOM      9  CA  UNL     1      18.741   5.677  17.801  0.00  0.00    +0.000 C 
ATOM     10  C   UNL     1      18.840   7.188  18.160  0.00  0.00    +0.000 C 
ATOM     11  CA  UNL     1      18.011   7.565  20.528  0.00  0.00    +0.000 C 
ATOM     12  C   UNL     1      17.374   6.921  21.535  0.00  0.00    +0.000 C 
ATOM     13  C   UNL     1      16.975   5.449  21.470  0.00  0.00    +0.000 C 
BRANCH  11  15
ATOM     14  OXT UNL     1      19.205   9.552  21.054  0.00  0.00    +0.000 OA
ATOM     15  C   UNL     1      18.229   9.019  20.565  0.00  0.00    +0.000 C 
BRANCH  15  16
ATOM     16  O   UNL     1      17.191   9.643  19.977  0.00  0.00    +0.000 OA
ATOM     17  H   UNL     1      20.656   5.653  19.039  0.00  0.00    +0.000 HD
ENDBRANCH  15  16
ENDBRANCH  11  15
BRANCH  12  18
ATOM     18  C   UNL     1      16.962   7.563  22.839  0.00  0.00    +0.000 C 
BRANCH  18  19
ATOM     19  N   UNL     1      15.473   7.662  22.967  0.00  0.00    +0.000 N 
ATOM     20  C   UNL     1      14.797   8.420  22.093  0.00  0.00    +0.000 A 
ATOM     21  C   UNL     1      14.864   6.988  23.953  0.00  0.00    +0.000 A 
ATOM     22  C   UNL     1      13.417   8.530  22.188  0.00  0.00    +0.000 A 
ATOM     23  C   UNL     1      13.485   7.061  24.097  0.00  0.00    +0.000 A 
ATOM     24  C   UNL     1      12.758   7.841  23.202  0.00  0.00    +0.000 A 
ENDBRANCH  18  19
ENDBRANCH  12  18
ENDBRANCH   2   9
BRANCH   3  26
ATOM     25  N   UNL     1      22.767   5.082  15.958  0.00  0.00    +0.000 NA
ATOM     26  C   UNL     1      21.660   4.458  15.686  0.00  0.00    +0.000 C 
BRANCH  26  30
ATOM     27  S   UNL     1      21.722   0.567  14.835  0.00  0.00    +0.000 S 
ATOM     28  N   UNL     1      21.681   2.907  13.739  0.00  0.00    +0.000 NA
ATOM     29  N   UNL     1      21.710   1.091  12.227  0.00  0.00    +0.000 N 
ATOM     30  C   UNL     1      21.679   3.088  15.108  0.00  0.00    +0.000 A 
ATOM     31  C   UNL     1      21.700   1.936  15.867  0.00  0.00    +0.000 A 
ATOM     32  C   UNL     1      21.703   1.619  13.479  0.00  0.00    +0.000 A 
ATOM     33  H   UNL     1      23.265   6.396  18.414  0.00  0.00    +0.000 HD
ATOM     34  H   UNL     1      23.265   6.396  18.414  0.00  0.00    +0.000 HD
ENDBRANCH  26  30
BRANCH  25  35
ATOM     35  O   UNL     1      23.891   4.309  15.640  0.00  0.00    +0.000 OA
BRANCH  35  37
ATOM     36  C   UNL     1      25.647   5.773  16.659  0.00  0.00    +0.000 C 
ATOM     37  C   UNL     1      24.984   5.239  15.424  0.00  0.00    +0.000 C 
ATOM     38  C   UNL     1      26.348   4.752  15.814  0.00  0.00    +0.000 C 
BRANCH  36  39
ATOM     39  S   UNL     1      26.217   7.415  16.714  0.00  0.00    +0.000 S 
BRANCH  39  40
ATOM     40  C   UNL     1      25.366   7.958  18.189  0.00  0.00    +0.000 A 
ATOM     41  C   UNL     1      24.632   9.144  18.175  0.00  0.00    +0.000 A 
ATOM     42  C   UNL     1      25.436   7.195  19.355  0.00  0.00    +0.000 A 
ATOM     43  C   UNL     1      23.969   9.568  19.327  0.00  0.00    +0.000 A 
ATOM     44  C   UNL     1      24.772   7.619  20.506  0.00  0.00    +0.000 A 
ATOM     45  C   UNL     1      24.039   8.805  20.493  0.00  0.00    +0.000 A 
ENDBRANCH  39  40
ENDBRANCH  36  39
ENDBRANCH  35  37
ENDBRANCH  25  35
ENDBRANCH   3  26
TORSDOF 11
ENDMDL
MODEL 19
REMARK minimizedAffinity -7.08807564
REMARK minimizedRMSD -1
REMARK  Name = 53768372
REMARK  11 active torsions:
REMARK  status: ('A' for Active; 'I' for Inactive)
REMARK    1  A    between atoms: S_2  and  C_15
REMARK    2  A    between atoms: S_2  and  C_26
REMARK    3  A    between atoms: O_4  and  N_11
REMARK    4  A    between atoms: O_4  and  C_16
REMARK    5  A    between atoms: O_6  and  C_27
REMARK    6  A    between atoms: N_10  and  CA_19
REMARK    7  A    between atoms: N_12  and  C_24
REMARK    8  A    between atoms: CA_21  and  C_27
REMARK    9  A    between atoms: C_22  and  C_24
REMARK   10  A    between atoms: C_25  and  C_28
REMARK   11  A    between atoms: C_28  and  C_31
REMARK                            x       y       z     vdW  Elec       q    Type
REMARK                         _______ _______ _______ _____ _____    ______ ____
ROOT
ATOM      1  O   UNL     1      11.277   3.143  22.100  0.00  0.00    +0.000 OA
ATOM      2  N   UNL     1      12.486   4.575  23.513  0.00  0.00    +0.000 N 
ATOM      3  C   UNL     1      11.683   3.492  23.196  0.00  0.00    +0.000 C 
ATOM      4  H   UNL     1      13.955   5.256  24.520  0.00  0.00    +0.000 HD
ENDROOT
BRANCH   2   9
ATOM      5  S   UNL     1      13.632   8.280  22.670  0.00  0.00    +0.000 S 
ATOM      6  O   UNL     1      14.395   4.025  20.952  0.00  0.00    +0.000 OA
ATOM      7  N   UNL     1      14.920   6.040  22.061  0.00  0.00    +0.000 N 
ATOM      8  C   UNL     1      13.989   6.550  23.051  0.00  0.00    +0.000 C 
ATOM      9  CA  UNL     1      12.988   5.507  22.506  0.00  0.00    +0.000 C 
ATOM     10  C   UNL     1      14.194   4.965  21.686  0.00  0.00    +0.000 C 
ATOM     11  CA  UNL     1      16.105   6.631  21.764  0.00  0.00    +0.000 C 
ATOM     12  C   UNL     1      16.382   7.898  22.156  0.00  0.00    +0.000 C 
ATOM     13  C   UNL     1      15.372   8.797  22.865  0.00  0.00    +0.000 C 
BRANCH  11  15
ATOM     14  OXT UNL     1      17.852   5.063  21.386  0.00  0.00    +0.000 OA
ATOM     15  C   UNL     1      17.049   5.859  20.941  0.00  0.00    +0.000 C 
BRANCH  15  16
ATOM     16  O   UNL     1      16.875   6.177  19.644  0.00  0.00    +0.000 OA
ATOM     17  H   UNL     1      14.012   4.683  23.931  0.00  0.00    +0.000 HD
ENDBRANCH  15  16
ENDBRANCH  11  15
BRANCH  12  18
ATOM     18  C   UNL     1      17.704   8.595  21.936  0.00  0.00    +0.000 C 
BRANCH  18  19
ATOM     19  N   UNL     1      17.754   9.295  20.612  0.00  0.00    +0.000 N 
ATOM     20  C   UNL     1      18.868   9.202  19.874  0.00  0.00    +0.000 A 
ATOM     21  C   UNL     1      16.681   9.991  20.209  0.00  0.00    +0.000 A 
ATOM     22  C   UNL     1      18.942   9.840  18.643  0.00  0.00    +0.000 A 
ATOM     23  C   UNL     1      16.699  10.650  18.988  0.00  0.00    +0.000 A 
ATOM     24  C   UNL     1      17.843  10.570  18.199  0.00  0.00    +0.000 A 
ENDBRANCH  18  19
ENDBRANCH  12  18
ENDBRANCH   2   9
BRANCH   3  26
ATOM     25  N   UNL     1      10.043   2.360  24.595  0.00  0.00    +0.000 NA
ATOM     26  C   UNL     1      11.287   2.678  24.400  0.00  0.00    +0.000 C 
BRANCH  26  30
ATOM     27  S   UNL     1      13.891   2.074  27.354  0.00  0.00    +0.000 S 
ATOM     28  N   UNL     1      13.142   1.153  25.058  0.00  0.00    +0.000 NA
ATOM     29  N   UNL     1      14.926  -0.017  26.075  0.00  0.00    +0.000 N 
ATOM     30  C   UNL     1      12.344   2.242  25.351  0.00  0.00    +0.000 A 
ATOM     31  C   UNL     1      12.601   2.870  26.552  0.00  0.00    +0.000 A 
ATOM     32  C   UNL     1      13.993   0.972  26.042  0.00  0.00    +0.000 A 
ATOM     33  H   UNL     1       9.903   5.803  22.954  0.00  0.00    +0.000 HD
ATOM     34  H   UNL     1       9.903   5.803  22.954  0.00  0.00    +0.000 HD
ENDBRANCH  26  30
BRANCH  25  35
ATOM     35  O   UNL     1       9.878   1.599  25.760  0.00  0.00    +0.000 OA
BRANCH  35  37
ATOM     36  C   UNL     1       7.832   0.334  25.067  0.00  0.00    +0.000 C 
ATOM     37  C   UNL     1       8.449   1.399  25.923  0.00  0.00    +0.000 C 
ATOM     38  C   UNL     1       8.034   0.093  26.533  0.00  0.00    +0.000 C 
BRANCH  36  39
ATOM     39  S   UNL     1       6.232   0.540  24.419  0.00  0.00    +0.000 S 
BRANCH  39  40
ATOM     40  C   UNL     1       6.314   2.280  24.018  0.00  0.00    +0.000 A 
ATOM     41  C   UNL     1       5.779   3.224  24.895  0.00  0.00    +0.000 A 
ATOM     42  C   UNL     1       6.913   2.695  22.828  0.00  0.00    +0.000 A 
ATOM     43  C   UNL     1       5.842   4.582  24.582  0.00  0.00    +0.000 A 
ATOM     44  C   UNL     1       6.977   4.053  22.516  0.00  0.00    +0.000 A 
ATOM     45  C   UNL     1       6.441   4.996  23.392  0.00  0.00    +0.000 A 
ENDBRANCH  39  40
ENDBRANCH  36  39
ENDBRANCH  35  37
ENDBRANCH  25  35
ENDBRANCH   3  26
TORSDOF 11
ENDMDL
MODEL 20
REMARK minimizedAffinity -7.0820899
REMARK minimizedRMSD -1
REMARK  Name = 53768372
REMARK  11 active torsions:
REMARK  status: ('A' for Active; 'I' for Inactive)
REMARK    1  A    between atoms: S_2  and  C_15
REMARK    2  A    between atoms: S_2  and  C_26
REMARK    3  A    between atoms: O_4  and  N_11
REMARK    4  A    between atoms: O_4  and  C_16
REMARK    5  A    between atoms: O_6  and  C_27
REMARK    6  A    between atoms: N_10  and  CA_19
REMARK    7  A    between atoms: N_12  and  C_24
REMARK    8  A    between atoms: CA_21  and  C_27
REMARK    9  A    between atoms: C_22  and  C_24
REMARK   10  A    between atoms: C_25  and  C_28
REMARK   11  A    between atoms: C_28  and  C_31
REMARK                            x       y       z     vdW  Elec       q    Type
REMARK                         _______ _______ _______ _____ _____    ______ ____
ROOT
ATOM      1  O   UNL     1      21.660   8.915  20.154  0.00  0.00    +0.000 OA
ATOM      2  N   UNL     1      21.638   8.670  17.819  0.00  0.00    +0.000 N 
ATOM      3  C   UNL     1      22.204   8.909  19.062  0.00  0.00    +0.000 C 
ATOM      4  H   UNL     1      21.776   7.818  16.120  0.00  0.00    +0.000 HD
ENDROOT
BRANCH   2   9
ATOM      5  S   UNL     1      18.712   6.011  18.162  0.00  0.00    +0.000 S 
ATOM      6  O   UNL     1      19.075  10.645  18.005  0.00  0.00    +0.000 OA
ATOM      7  N   UNL     1      18.669   8.537  18.980  0.00  0.00    +0.000 N 
ATOM      8  C   UNL     1      19.619   7.465  18.736  0.00  0.00    +0.000 C 
ATOM      9  CA  UNL     1      20.218   8.376  17.642  0.00  0.00    +0.000 C 
ATOM     10  C   UNL     1      19.268   9.470  18.209  0.00  0.00    +0.000 C 
ATOM     11  CA  UNL     1      17.578   8.411  19.778  0.00  0.00    +0.000 C 
ATOM     12  C   UNL     1      17.129   7.197  20.177  0.00  0.00    +0.000 C 
ATOM     13  C   UNL     1      17.732   5.880  19.696  0.00  0.00    +0.000 C 
BRANCH  11  15
ATOM     14  OXT UNL     1      15.904  10.081  19.533  0.00  0.00    +0.000 OA
ATOM     15  C   UNL     1      16.866   9.648  20.135  0.00  0.00    +0.000 C 
BRANCH  15  16
ATOM     16  O   UNL     1      17.447  10.203  21.215  0.00  0.00    +0.000 OA
ATOM     17  H   UNL     1      15.532   5.473  19.551  0.00  0.00    +0.000 HD
ENDBRANCH  15  16
ENDBRANCH  11  15
BRANCH  12  18
ATOM     18  C   UNL     1      15.975   6.979  21.126  0.00  0.00    +0.000 C 
BRANCH  18  19
ATOM     19  N   UNL     1      16.323   6.014  22.218  0.00  0.00    +0.000 N 
ATOM     20  C   UNL     1      17.381   6.274  22.998  0.00  0.00    +0.000 A 
ATOM     21  C   UNL     1      15.564   4.921  22.380  0.00  0.00    +0.000 A 
ATOM     22  C   UNL     1      17.726   5.398  24.017  0.00  0.00    +0.000 A 
ATOM     23  C   UNL     1      15.862   4.009  23.382  0.00  0.00    +0.000 A 
ATOM     24  C   UNL     1      16.956   4.254  24.208  0.00  0.00    +0.000 A 
ENDBRANCH  18  19
ENDBRANCH  12  18
ENDBRANCH   2   9
BRANCH   3  26
ATOM     25  N   UNL     1      24.295   9.194  17.848  0.00  0.00    +0.000 NA
ATOM     26  C   UNL     1      23.680   9.194  18.993  0.00  0.00    +0.000 C 
BRANCH  26  30
ATOM     27  S   UNL     1      25.557  10.664  22.185  0.00  0.00    +0.000 S 
ATOM     28  N   UNL     1      24.871   8.446  21.048  0.00  0.00    +0.000 NA
ATOM     29  N   UNL     1      26.055   8.209  23.079  0.00  0.00    +0.000 N 
ATOM     30  C   UNL     1      24.416   9.481  20.253  0.00  0.00    +0.000 A 
ATOM     31  C   UNL     1      24.694  10.754  20.706  0.00  0.00    +0.000 A 
ATOM     32  C   UNL     1      25.486   8.952  22.093  0.00  0.00    +0.000 A 
ATOM     33  H   UNL     1      23.532  10.374  15.478  0.00  0.00    +0.000 HD
ATOM     34  H   UNL     1      23.532  10.374  15.478  0.00  0.00    +0.000 HD
ENDBRANCH  26  30
BRANCH  25  35
ATOM     35  O   UNL     1      25.658   9.485  17.990  0.00  0.00    +0.000 OA
BRANCH  35  37
ATOM     36  C   UNL     1      26.644   7.721  16.512  0.00  0.00    +0.000 C 
ATOM     37  C   UNL     1      26.362   8.219  17.899  0.00  0.00    +0.000 C 
ATOM     38  C   UNL     1      27.757   8.281  17.349  0.00  0.00    +0.000 C 
BRANCH  36  39
ATOM     39  S   UNL     1      26.578   6.021  16.155  0.00  0.00    +0.000 S 
BRANCH  39  40
ATOM     40  C   UNL     1      24.902   5.689  16.681  0.00  0.00    +0.000 A 
ATOM     41  C   UNL     1      23.835   5.955  15.823  0.00  0.00    +0.000 A 
ATOM     42  C   UNL     1      24.662   5.163  17.951  0.00  0.00    +0.000 A 
ATOM     43  C   UNL     1      22.528   5.697  16.235  0.00  0.00    +0.000 A 
ATOM     44  C   UNL     1      23.354   4.904  18.362  0.00  0.00    +0.000 A 
ATOM     45  C   UNL     1      22.287   5.171  17.504  0.00  0.00    +0.000 A 
ENDBRANCH  39  40
ENDBRANCH  36  39
ENDBRANCH  35  37
ENDBRANCH  25  35
ENDBRANCH   3  26
TORSDOF 11
ENDMDL
