MODEL 1
REMARK minimizedAffinity -8.07673073
REMARK minimizedRMSD -1
REMARK  Name = 53861323
REMARK  10 active torsions:
REMARK  status: ('A' for Active; 'I' for Inactive)
REMARK    1  A    between atoms: S_2  and  C_20
REMARK    2  A    between atoms: S_2  and  C_24
REMARK    3  A    between atoms: O_5  and  C_21
REMARK    4  A    between atoms: O_8  and  N_11
REMARK    5  A    between atoms: O_8  and  C_32
REMARK    6  A    between atoms: N_10  and  CA_16
REMARK    7  A    between atoms: CA_18  and  C_21
REMARK    8  A    between atoms: C_22  and  C_23
REMARK    9  A    between atoms: C_23  and  C_25
REMARK   10  A    between atoms: C_26  and  C_28
REMARK                            x       y       z     vdW  Elec       q    Type
REMARK                         _______ _______ _______ _____ _____    ______ ____
ROOT
ATOM      1  S   UNL     1      18.750   6.821  20.457  0.00  0.00    +0.000 S 
ATOM      2  O   UNL     1      18.909   9.866  16.937  0.00  0.00    +0.000 OA
ATOM      3  N   UNL     1      18.671   9.142  19.171  0.00  0.00    +0.000 N 
ATOM      4  C   UNL     1      19.639   8.194  19.693  0.00  0.00    +0.000 C 
ATOM      5  CA  UNL     1      20.089   7.992  18.231  0.00  0.00    +0.000 C 
ATOM      6  C   UNL     1      19.160   9.197  17.912  0.00  0.00    +0.000 C 
ATOM      7  CA  UNL     1      17.671   9.693  19.913  0.00  0.00    +0.000 C 
ATOM      8  C   UNL     1      17.950   7.898  21.696  0.00  0.00    +0.000 C 
ATOM      9  C   UNL     1      17.318   9.160  21.110  0.00  0.00    +0.000 C 
ENDROOT
BRANCH   5  11
ATOM     10  O   UNL     1      21.669   7.425  15.809  0.00  0.00    +0.000 OA
ATOM     11  N   UNL     1      21.507   8.255  17.999  0.00  0.00    +0.000 N 
ATOM     12  C   UNL     1      22.142   7.940  16.809  0.00  0.00    +0.000 C 
ATOM     13  H   UNL     1      21.173   5.671  19.730  0.00  0.00    +0.000 HD
BRANCH  12  15
ATOM     14  N   UNL     1      24.235   8.465  15.679  0.00  0.00    +0.000 NA
ATOM     15  C   UNL     1      23.603   8.310  16.803  0.00  0.00    +0.000 C 
BRANCH  15  19
ATOM     16  S   UNL     1      25.571   8.055  20.257  0.00  0.00    +0.000 S 
ATOM     17  N   UNL     1      24.428   9.741  18.665  0.00  0.00    +0.000 NA
ATOM     18  N   UNL     1      25.373  10.684  20.616  0.00  0.00    +0.000 N 
ATOM     19  C   UNL     1      24.304   8.485  18.103  0.00  0.00    +0.000 A 
ATOM     20  C   UNL     1      24.861   7.447  18.820  0.00  0.00    +0.000 A 
ATOM     21  C   UNL     1      25.078   9.635  19.802  0.00  0.00    +0.000 A 
ATOM     22  H   UNL     1      21.281   5.502  19.659  0.00  0.00    +0.000 HD
ATOM     23  H   UNL     1      21.281   5.502  19.659  0.00  0.00    +0.000 HD
ENDBRANCH  15  19
BRANCH  14  24
ATOM     24  O   UNL     1      25.580   8.799  15.881  0.00  0.00    +0.000 OA
ATOM     25  C   UNL     1      25.810  10.075  15.304  0.00  0.00    +0.000 C 
ENDBRANCH  14  24
ENDBRANCH  12  15
ENDBRANCH   5  11
BRANCH   7  27
ATOM     26  OXT UNL     1      17.496  11.933  19.138  0.00  0.00    +0.000 OA
ATOM     27  C   UNL     1      16.979  10.852  19.316  0.00  0.00    +0.000 C 
BRANCH  27  28
ATOM     28  O   UNL     1      15.714  10.506  19.017  0.00  0.00    +0.000 OA
ATOM     29  H   UNL     1      16.200   7.216  20.261  0.00  0.00    +0.000 HD
ENDBRANCH  27  28
ENDBRANCH   7  27
BRANCH   9  30
ATOM     30  S   UNL     1      16.069   9.873  22.122  0.00  0.00    +0.000 S 
BRANCH  30  31
ATOM     31  C   UNL     1      15.620   8.448  22.965  0.00  0.00    +0.000 C 
ATOM     32  C   UNL     1      14.336   8.096  23.125  0.00  0.00    +0.000 C 
BRANCH  32  34
ATOM     33  N   UNL     1      12.590   4.848  23.831  0.00  0.00    +0.000 NA
ATOM     34  C   UNL     1      13.876   6.895  23.843  0.00  0.00    +0.000 A 
ATOM     35  C   UNL     1      14.261   6.654  25.157  0.00  0.00    +0.000 A 
ATOM     36  C   UNL     1      13.047   5.969  23.230  0.00  0.00    +0.000 A 
ATOM     37  C   UNL     1      13.812   5.510  25.809  0.00  0.00    +0.000 A 
ATOM     38  C   UNL     1      12.986   4.647  25.108  0.00  0.00    +0.000 A 
ENDBRANCH  32  34
ENDBRANCH  30  31
ENDBRANCH   9  30
TORSDOF 9
ENDMDL
MODEL 2
REMARK minimizedAffinity -7.59051943
REMARK minimizedRMSD -1
REMARK  Name = 53861323
REMARK  10 active torsions:
REMARK  status: ('A' for Active; 'I' for Inactive)
REMARK    1  A    between atoms: S_2  and  C_20
REMARK    2  A    between atoms: S_2  and  C_24
REMARK    3  A    between atoms: O_5  and  C_21
REMARK    4  A    between atoms: O_8  and  N_11
REMARK    5  A    between atoms: O_8  and  C_32
REMARK    6  A    between atoms: N_10  and  CA_16
REMARK    7  A    between atoms: CA_18  and  C_21
REMARK    8  A    between atoms: C_22  and  C_23
REMARK    9  A    between atoms: C_23  and  C_25
REMARK   10  A    between atoms: C_26  and  C_28
REMARK                            x       y       z     vdW  Elec       q    Type
REMARK                         _______ _______ _______ _____ _____    ______ ____
ROOT
ATOM      1  S   UNL     1      18.871   6.576  19.648  0.00  0.00    +0.000 S 
ATOM      2  O   UNL     1      19.174   9.899  16.399  0.00  0.00    +0.000 OA
ATOM      3  N   UNL     1      18.994   9.002  18.575  0.00  0.00    +0.000 N 
ATOM      4  C   UNL     1      19.870   7.902  18.939  0.00  0.00    +0.000 C 
ATOM      5  CA  UNL     1      20.196   7.787  17.435  0.00  0.00    +0.000 C 
ATOM      6  C   UNL     1      19.404   9.117  17.291  0.00  0.00    +0.000 C 
ATOM      7  CA  UNL     1      18.121   9.594  19.435  0.00  0.00    +0.000 C 
ATOM      8  C   UNL     1      18.292   7.618  21.031  0.00  0.00    +0.000 C 
ATOM      9  C   UNL     1      17.784   8.995  20.606  0.00  0.00    +0.000 C 
ENDROOT
BRANCH   5  11
ATOM     10  O   UNL     1      21.885   5.888  15.944  0.00  0.00    +0.000 OA
ATOM     11  N   UNL     1      21.617   7.902  17.118  0.00  0.00    +0.000 N 
ATOM     12  C   UNL     1      22.307   6.936  16.405  0.00  0.00    +0.000 C 
ATOM     13  H   UNL     1      21.260   6.971  20.083  0.00  0.00    +0.000 HD
BRANCH  12  15
ATOM     14  N   UNL     1      24.116   8.505  15.962  0.00  0.00    +0.000 NA
ATOM     15  C   UNL     1      23.759   7.279  16.198  0.00  0.00    +0.000 C 
BRANCH  15  19
ATOM     16  S   UNL     1      26.449   4.480  17.091  0.00  0.00    +0.000 S 
ATOM     17  N   UNL     1      25.201   5.568  15.106  0.00  0.00    +0.000 NA
ATOM     18  N   UNL     1      26.715   3.851  14.520  0.00  0.00    +0.000 N 
ATOM     19  C   UNL     1      24.770   6.189  16.262  0.00  0.00    +0.000 A 
ATOM     20  C   UNL     1      25.334   5.735  17.436  0.00  0.00    +0.000 A 
ATOM     21  C   UNL     1      26.087   4.651  15.422  0.00  0.00    +0.000 A 
ATOM     22  H   UNL     1      27.333   9.261  18.375  0.00  0.00    +0.000 HD
ATOM     23  H   UNL     1      27.333   9.261  18.375  0.00  0.00    +0.000 HD
ENDBRANCH  15  19
BRANCH  14  24
ATOM     24  O   UNL     1      25.502   8.620  15.792  0.00  0.00    +0.000 OA
ATOM     25  C   UNL     1      25.795   9.968  15.458  0.00  0.00    +0.000 C 
ENDBRANCH  14  24
ENDBRANCH  12  15
ENDBRANCH   5  11
BRANCH   7  27
ATOM     26  OXT UNL     1      18.092  11.948  19.113  0.00  0.00    +0.000 OA
ATOM     27  C   UNL     1      17.540  10.876  18.994  0.00  0.00    +0.000 C 
BRANCH  27  28
ATOM     28  O   UNL     1      16.328  10.651  18.455  0.00  0.00    +0.000 OA
ATOM     29  H   UNL     1      16.582   7.162  19.063  0.00  0.00    +0.000 HD
ENDBRANCH  27  28
ENDBRANCH   7  27
BRANCH   9  30
ATOM     30  S   UNL     1      16.701   9.751  21.767  0.00  0.00    +0.000 S 
BRANCH  30  31
ATOM     31  C   UNL     1      15.774   8.359  22.151  0.00  0.00    +0.000 C 
ATOM     32  C   UNL     1      15.287   8.153  23.383  0.00  0.00    +0.000 C 
BRANCH  32  34
ATOM     33  N   UNL     1      13.942   5.342  25.478  0.00  0.00    +0.000 NA
ATOM     34  C   UNL     1      14.492   6.980  23.788  0.00  0.00    +0.000 A 
ATOM     35  C   UNL     1      13.571   6.405  22.919  0.00  0.00    +0.000 A 
ATOM     36  C   UNL     1      14.639   6.415  25.045  0.00  0.00    +0.000 A 
ATOM     37  C   UNL     1      12.834   5.299  23.330  0.00  0.00    +0.000 A 
ATOM     38  C   UNL     1      13.055   4.810  24.607  0.00  0.00    +0.000 A 
ENDBRANCH  32  34
ENDBRANCH  30  31
ENDBRANCH   9  30
TORSDOF 9
ENDMDL
MODEL 3
REMARK minimizedAffinity -7.4701395
REMARK minimizedRMSD -1
REMARK  Name = 53861323
REMARK  10 active torsions:
REMARK  status: ('A' for Active; 'I' for Inactive)
REMARK    1  A    between atoms: S_2  and  C_20
REMARK    2  A    between atoms: S_2  and  C_24
REMARK    3  A    between atoms: O_5  and  C_21
REMARK    4  A    between atoms: O_8  and  N_11
REMARK    5  A    between atoms: O_8  and  C_32
REMARK    6  A    between atoms: N_10  and  CA_16
REMARK    7  A    between atoms: CA_18  and  C_21
REMARK    8  A    between atoms: C_22  and  C_23
REMARK    9  A    between atoms: C_23  and  C_25
REMARK   10  A    between atoms: C_26  and  C_28
REMARK                            x       y       z     vdW  Elec       q    Type
REMARK                         _______ _______ _______ _____ _____    ______ ____
ROOT
ATOM      1  S   UNL     1      18.207   6.155  19.387  0.00  0.00    +0.000 S 
ATOM      2  O   UNL     1      19.476   9.437  16.336  0.00  0.00    +0.000 OA
ATOM      3  N   UNL     1      18.965   8.521  18.450  0.00  0.00    +0.000 N 
ATOM      4  C   UNL     1      19.532   7.230  18.795  0.00  0.00    +0.000 C 
ATOM      5  CA  UNL     1      19.905   7.101  17.304  0.00  0.00    +0.000 C 
ATOM      6  C   UNL     1      19.462   8.587  17.195  0.00  0.00    +0.000 C 
ATOM      7  CA  UNL     1      18.210   9.271  19.300  0.00  0.00    +0.000 C 
ATOM      8  C   UNL     1      17.816   7.249  20.796  0.00  0.00    +0.000 C 
ATOM      9  C   UNL     1      17.675   8.724  20.421  0.00  0.00    +0.000 C 
ENDROOT
BRANCH   5  11
ATOM     10  O   UNL     1      21.164   5.072  15.576  0.00  0.00    +0.000 OA
ATOM     11  N   UNL     1      21.329   6.884  17.058  0.00  0.00    +0.000 N 
ATOM     12  C   UNL     1      21.802   5.889  16.218  0.00  0.00    +0.000 C 
ATOM     13  H   UNL     1      20.523   5.643  19.814  0.00  0.00    +0.000 HD
BRANCH  12  15
ATOM     14  N   UNL     1      23.917   4.798  15.702  0.00  0.00    +0.000 NA
ATOM     15  C   UNL     1      23.305   5.864  16.120  0.00  0.00    +0.000 C 
BRANCH  15  19
ATOM     16  S   UNL     1      25.231   9.331  16.495  0.00  0.00    +0.000 S 
ATOM     17  N   UNL     1      24.580   7.194  17.794  0.00  0.00    +0.000 NA
ATOM     18  N   UNL     1      25.834   8.775  19.025  0.00  0.00    +0.000 N 
ATOM     19  C   UNL     1      24.070   7.077  16.516  0.00  0.00    +0.000 A 
ATOM     20  C   UNL     1      24.321   8.136  15.668  0.00  0.00    +0.000 A 
ATOM     21  C   UNL     1      25.212   8.341  17.897  0.00  0.00    +0.000 A 
ATOM     22  H   UNL     1      26.731   6.031  13.010  0.00  0.00    +0.000 HD
ATOM     23  H   UNL     1      26.731   6.031  13.010  0.00  0.00    +0.000 HD
ENDBRANCH  15  19
BRANCH  14  24
ATOM     24  O   UNL     1      25.307   4.968  15.687  0.00  0.00    +0.000 OA
ATOM     25  C   UNL     1      25.822   4.292  14.550  0.00  0.00    +0.000 C 
ENDBRANCH  14  24
ENDBRANCH  12  15
ENDBRANCH   5  11
BRANCH   7  27
ATOM     26  OXT UNL     1      18.714  11.591  19.187  0.00  0.00    +0.000 OA
ATOM     27  C   UNL     1      17.976  10.672  18.902  0.00  0.00    +0.000 C 
BRANCH  27  28
ATOM     28  O   UNL     1      16.838  10.746  18.189  0.00  0.00    +0.000 OA
ATOM     29  H   UNL     1      16.277   7.255  18.513  0.00  0.00    +0.000 HD
ENDBRANCH  27  28
ENDBRANCH   7  27
BRANCH   9  30
ATOM     30  S   UNL     1      16.738   9.670  21.571  0.00  0.00    +0.000 S 
BRANCH  30  31
ATOM     31  C   UNL     1      16.146   8.363  22.510  0.00  0.00    +0.000 C 
ATOM     32  C   UNL     1      14.834   8.177  22.713  0.00  0.00    +0.000 C 
BRANCH  32  34
ATOM     33  N   UNL     1      12.796   5.159  23.631  0.00  0.00    +0.000 NA
ATOM     34  C   UNL     1      14.253   7.084  23.513  0.00  0.00    +0.000 A 
ATOM     35  C   UNL     1      14.581   6.927  24.855  0.00  0.00    +0.000 A 
ATOM     36  C   UNL     1      13.362   6.182  22.953  0.00  0.00    +0.000 A 
ATOM     37  C   UNL     1      14.018   5.886  25.586  0.00  0.00    +0.000 A 
ATOM     38  C   UNL     1      13.139   5.037  24.933  0.00  0.00    +0.000 A 
ENDBRANCH  32  34
ENDBRANCH  30  31
ENDBRANCH   9  30
TORSDOF 9
ENDMDL
MODEL 4
REMARK minimizedAffinity -7.46398163
REMARK minimizedRMSD -1
REMARK  Name = 53861323
REMARK  10 active torsions:
REMARK  status: ('A' for Active; 'I' for Inactive)
REMARK    1  A    between atoms: S_2  and  C_20
REMARK    2  A    between atoms: S_2  and  C_24
REMARK    3  A    between atoms: O_5  and  C_21
REMARK    4  A    between atoms: O_8  and  N_11
REMARK    5  A    between atoms: O_8  and  C_32
REMARK    6  A    between atoms: N_10  and  CA_16
REMARK    7  A    between atoms: CA_18  and  C_21
REMARK    8  A    between atoms: C_22  and  C_23
REMARK    9  A    between atoms: C_23  and  C_25
REMARK   10  A    between atoms: C_26  and  C_28
REMARK                            x       y       z     vdW  Elec       q    Type
REMARK                         _______ _______ _______ _____ _____    ______ ____
ROOT
ATOM      1  S   UNL     1      13.716   4.878  21.490  0.00  0.00    +0.000 S 
ATOM      2  O   UNL     1      12.809   3.495  25.843  0.00  0.00    +0.000 OA
ATOM      3  N   UNL     1      13.078   5.021  24.063  0.00  0.00    +0.000 N 
ATOM      4  C   UNL     1      12.471   4.699  22.784  0.00  0.00    +0.000 C 
ATOM      5  CA  UNL     1      12.264   3.277  23.346  0.00  0.00    +0.000 C 
ATOM      6  C   UNL     1      12.724   3.884  24.702  0.00  0.00    +0.000 C 
ATOM      7  CA  UNL     1      13.738   6.184  24.320  0.00  0.00    +0.000 C 
ATOM      8  C   UNL     1      13.955   6.657  21.827  0.00  0.00    +0.000 C 
ATOM      9  C   UNL     1      14.143   6.991  23.306  0.00  0.00    +0.000 C 
ENDROOT
BRANCH   5  11
ATOM     10  O   UNL     1      11.099   1.022  21.849  0.00  0.00    +0.000 OA
ATOM     11  N   UNL     1      10.875   2.824  23.336  0.00  0.00    +0.000 N 
ATOM     12  C   UNL     1      10.445   1.743  22.586  0.00  0.00    +0.000 C 
ATOM     13  H   UNL     1      11.190   5.331  21.491  0.00  0.00    +0.000 HD
BRANCH  12  15
ATOM     14  N   UNL     1       8.505   0.272  22.522  0.00  0.00    +0.000 NA
ATOM     15  C   UNL     1       8.973   1.463  22.742  0.00  0.00    +0.000 C 
BRANCH  15  19
ATOM     16  S   UNL     1       6.605   4.644  23.120  0.00  0.00    +0.000 S 
ATOM     17  N   UNL     1       7.636   2.683  24.451  0.00  0.00    +0.000 NA
ATOM     18  N   UNL     1       6.260   4.137  25.708  0.00  0.00    +0.000 N 
ATOM     19  C   UNL     1       8.070   2.575  23.144  0.00  0.00    +0.000 A 
ATOM     20  C   UNL     1       7.616   3.546  22.277  0.00  0.00    +0.000 A 
ATOM     21  C   UNL     1       6.859   3.737  24.555  0.00  0.00    +0.000 A 
ATOM     22  H   UNL     1      11.333   5.255  21.522  0.00  0.00    +0.000 HD
ATOM     23  H   UNL     1      11.333   5.255  21.522  0.00  0.00    +0.000 HD
ENDBRANCH  15  19
BRANCH  14  24
ATOM     24  O   UNL     1       7.118   0.215  22.712  0.00  0.00    +0.000 OA
ATOM     25  C   UNL     1       6.840  -0.847  23.612  0.00  0.00    +0.000 C 
ENDBRANCH  14  24
ENDBRANCH  12  15
ENDBRANCH   5  11
BRANCH   7  27
ATOM     26  OXT UNL     1      13.292   7.123  26.457  0.00  0.00    +0.000 OA
ATOM     27  C   UNL     1      14.021   6.474  25.738  0.00  0.00    +0.000 C 
BRANCH  27  28
ATOM     28  O   UNL     1      15.193   5.909  26.080  0.00  0.00    +0.000 OA
ATOM     29  H   UNL     1      15.660   4.627  22.802  0.00  0.00    +0.000 HD
ENDBRANCH  27  28
ENDBRANCH   7  27
BRANCH   9  30
ATOM     30  S   UNL     1      14.951   8.527  23.597  0.00  0.00    +0.000 S 
BRANCH  30  31
ATOM     31  C   UNL     1      15.685   8.692  22.055  0.00  0.00    +0.000 C 
ATOM     32  C   UNL     1      16.602   9.637  21.808  0.00  0.00    +0.000 C 
BRANCH  32  34
ATOM     33  N   UNL     1      17.115  10.540  18.199  0.00  0.00    +0.000 NA
ATOM     34  C   UNL     1      17.267   9.845  20.509  0.00  0.00    +0.000 A 
ATOM     35  C   UNL     1      18.618   9.562  20.343  0.00  0.00    +0.000 A 
ATOM     36  C   UNL     1      16.566  10.327  19.415  0.00  0.00    +0.000 A 
ATOM     37  C   UNL     1      19.219   9.768  19.105  0.00  0.00    +0.000 A 
ATOM     38  C   UNL     1      18.431  10.255  18.075  0.00  0.00    +0.000 A 
ENDBRANCH  32  34
ENDBRANCH  30  31
ENDBRANCH   9  30
TORSDOF 9
ENDMDL
MODEL 5
REMARK minimizedAffinity -7.39342356
REMARK minimizedRMSD -1
REMARK  Name = 53861323
REMARK  10 active torsions:
REMARK  status: ('A' for Active; 'I' for Inactive)
REMARK    1  A    between atoms: S_2  and  C_20
REMARK    2  A    between atoms: S_2  and  C_24
REMARK    3  A    between atoms: O_5  and  C_21
REMARK    4  A    between atoms: O_8  and  N_11
REMARK    5  A    between atoms: O_8  and  C_32
REMARK    6  A    between atoms: N_10  and  CA_16
REMARK    7  A    between atoms: CA_18  and  C_21
REMARK    8  A    between atoms: C_22  and  C_23
REMARK    9  A    between atoms: C_23  and  C_25
REMARK   10  A    between atoms: C_26  and  C_28
REMARK                            x       y       z     vdW  Elec       q    Type
REMARK                         _______ _______ _______ _____ _____    ______ ____
ROOT
ATOM      1  S   UNL     1      17.054   5.759  23.559  0.00  0.00    +0.000 S 
ATOM      2  O   UNL     1      13.266   8.283  22.574  0.00  0.00    +0.000 OA
ATOM      3  N   UNL     1      15.388   7.318  22.201  0.00  0.00    +0.000 N 
ATOM      4  C   UNL     1      15.574   5.918  22.537  0.00  0.00    +0.000 C 
ATOM      5  CA  UNL     1      14.230   6.015  23.288  0.00  0.00    +0.000 C 
ATOM      6  C   UNL     1      14.109   7.418  22.629  0.00  0.00    +0.000 C 
ATOM      7  CA  UNL     1      16.344   8.093  21.620  0.00  0.00    +0.000 C 
ATOM      8  C   UNL     1      18.148   6.411  22.249  0.00  0.00    +0.000 C 
ATOM      9  C   UNL     1      17.642   7.697  21.597  0.00  0.00    +0.000 C 
ENDROOT
BRANCH   5  11
ATOM     10  O   UNL     1      12.411   4.386  24.938  0.00  0.00    +0.000 OA
ATOM     11  N   UNL     1      13.222   5.058  22.840  0.00  0.00    +0.000 N 
ATOM     12  C   UNL     1      12.421   4.346  23.718  0.00  0.00    +0.000 C 
ATOM     13  H   UNL     1      16.062   3.753  22.708  0.00  0.00    +0.000 HD
BRANCH  12  15
ATOM     14  N   UNL     1      11.865   2.642  22.070  0.00  0.00    +0.000 NA
ATOM     15  C   UNL     1      11.454   3.425  23.022  0.00  0.00    +0.000 C 
BRANCH  15  19
ATOM     16  S   UNL     1       7.821   2.886  24.565  0.00  0.00    +0.000 S 
ATOM     17  N   UNL     1       9.149   4.357  22.905  0.00  0.00    +0.000 NA
ATOM     18  N   UNL     1       6.858   4.898  23.117  0.00  0.00    +0.000 N 
ATOM     19  C   UNL     1      10.026   3.434  23.440  0.00  0.00    +0.000 A 
ATOM     20  C   UNL     1       9.491   2.554  24.356  0.00  0.00    +0.000 A 
ATOM     21  C   UNL     1       7.958   4.162  23.425  0.00  0.00    +0.000 A 
ATOM     22  H   UNL     1      10.030  -0.876  22.065  0.00  0.00    +0.000 HD
ATOM     23  H   UNL     1      10.030  -0.876  22.065  0.00  0.00    +0.000 HD
ENDBRANCH  15  19
BRANCH  14  24
ATOM     24  O   UNL     1      10.820   1.870  21.545  0.00  0.00    +0.000 OA
ATOM     25  C   UNL     1      11.168   0.502  21.689  0.00  0.00    +0.000 C 
ENDBRANCH  14  24
ENDBRANCH  12  15
ENDBRANCH   5  11
BRANCH   7  27
ATOM     26  OXT UNL     1      15.443   9.534  19.958  0.00  0.00    +0.000 OA
ATOM     27  C   UNL     1      15.891   9.387  21.074  0.00  0.00    +0.000 C 
BRANCH  27  28
ATOM     28  O   UNL     1      16.059  10.343  22.006  0.00  0.00    +0.000 OA
ATOM     29  H   UNL     1      17.406   8.010  24.319  0.00  0.00    +0.000 HD
ENDBRANCH  27  28
ENDBRANCH   7  27
BRANCH   9  30
ATOM     30  S   UNL     1      18.897   8.644  20.809  0.00  0.00    +0.000 S 
BRANCH  30  31
ATOM     31  C   UNL     1      19.510   7.406  19.792  0.00  0.00    +0.000 C 
ATOM     32  C   UNL     1      19.009   7.184  18.569  0.00  0.00    +0.000 C 
BRANCH  32  34
ATOM     33  N   UNL     1      19.487   3.808  16.998  0.00  0.00    +0.000 NA
ATOM     34  C   UNL     1      19.477   6.137  17.645  0.00  0.00    +0.000 A 
ATOM     35  C   UNL     1      20.319   6.443  16.581  0.00  0.00    +0.000 A 
ATOM     36  C   UNL     1      19.094   4.814  17.808  0.00  0.00    +0.000 A 
ATOM     37  C   UNL     1      20.744   5.433  15.725  0.00  0.00    +0.000 A 
ATOM     38  C   UNL     1      20.304   4.144  15.974  0.00  0.00    +0.000 A 
ENDBRANCH  32  34
ENDBRANCH  30  31
ENDBRANCH   9  30
TORSDOF 9
ENDMDL
MODEL 6
REMARK minimizedAffinity -7.33920813
REMARK minimizedRMSD -1
REMARK  Name = 53861323
REMARK  10 active torsions:
REMARK  status: ('A' for Active; 'I' for Inactive)
REMARK    1  A    between atoms: S_2  and  C_20
REMARK    2  A    between atoms: S_2  and  C_24
REMARK    3  A    between atoms: O_5  and  C_21
REMARK    4  A    between atoms: O_8  and  N_11
REMARK    5  A    between atoms: O_8  and  C_32
REMARK    6  A    between atoms: N_10  and  CA_16
REMARK    7  A    between atoms: CA_18  and  C_21
REMARK    8  A    between atoms: C_22  and  C_23
REMARK    9  A    between atoms: C_23  and  C_25
REMARK   10  A    between atoms: C_26  and  C_28
REMARK                            x       y       z     vdW  Elec       q    Type
REMARK                         _______ _______ _______ _____ _____    ______ ____
ROOT
ATOM      1  S   UNL     1      18.644   5.952  18.429  0.00  0.00    +0.000 S 
ATOM      2  O   UNL     1      18.906  10.572  17.906  0.00  0.00    +0.000 OA
ATOM      3  N   UNL     1      18.534   8.535  19.037  0.00  0.00    +0.000 N 
ATOM      4  C   UNL     1      19.510   7.472  18.876  0.00  0.00    +0.000 C 
ATOM      5  CA  UNL     1      20.084   8.303  17.709  0.00  0.00    +0.000 C 
ATOM      6  C   UNL     1      19.117   9.419  18.196  0.00  0.00    +0.000 C 
ATOM      7  CA  UNL     1      17.450   8.453  19.856  0.00  0.00    +0.000 C 
ATOM      8  C   UNL     1      17.689   5.921  19.985  0.00  0.00    +0.000 C 
ATOM      9  C   UNL     1      17.036   7.255  20.343  0.00  0.00    +0.000 C 
ENDROOT
BRANCH   5  11
ATOM     10  O   UNL     1      22.273   7.783  15.806  0.00  0.00    +0.000 OA
ATOM     11  N   UNL     1      21.499   8.637  17.851  0.00  0.00    +0.000 N 
ATOM     12  C   UNL     1      22.441   8.339  16.880  0.00  0.00    +0.000 C 
ATOM     13  H   UNL     1      20.843   6.067  19.509  0.00  0.00    +0.000 HD
BRANCH  12  15
ATOM     14  N   UNL     1      24.653   9.194  16.328  0.00  0.00    +0.000 NA
ATOM     15  C   UNL     1      23.831   8.786  17.248  0.00  0.00    +0.000 C 
BRANCH  15  19
ATOM     16  S   UNL     1      25.056   7.966  20.948  0.00  0.00    +0.000 S 
ATOM     17  N   UNL     1      24.208   9.891  19.446  0.00  0.00    +0.000 NA
ATOM     18  N   UNL     1      24.700  10.499  21.677  0.00  0.00    +0.000 N 
ATOM     19  C   UNL     1      24.244   8.745  18.676  0.00  0.00    +0.000 A 
ATOM     20  C   UNL     1      24.677   7.602  19.316  0.00  0.00    +0.000 A 
ATOM     21  C   UNL     1      24.613   9.599  20.661  0.00  0.00    +0.000 A 
ATOM     22  H   UNL     1      21.069   5.547  19.067  0.00  0.00    +0.000 HD
ATOM     23  H   UNL     1      21.069   5.547  19.067  0.00  0.00    +0.000 HD
ENDBRANCH  15  19
BRANCH  14  24
ATOM     24  O   UNL     1      25.894   9.560  16.866  0.00  0.00    +0.000 OA
ATOM     25  C   UNL     1      26.842   9.585  15.810  0.00  0.00    +0.000 C 
ENDBRANCH  14  24
ENDBRANCH  12  15
ENDBRANCH   5  11
BRANCH   7  27
ATOM     26  OXT UNL     1      15.871  10.175  19.424  0.00  0.00    +0.000 OA
ATOM     27  C   UNL     1      16.743   9.718  20.130  0.00  0.00    +0.000 C 
BRANCH  27  28
ATOM     28  O   UNL     1      17.223  10.256  21.266  0.00  0.00    +0.000 OA
ATOM     29  H   UNL     1      19.525   7.586  21.691  0.00  0.00    +0.000 HD
ENDBRANCH  27  28
ENDBRANCH   7  27
BRANCH   9  30
ATOM     30  S   UNL     1      15.672   7.114  21.446  0.00  0.00    +0.000 S 
BRANCH  30  31
ATOM     31  C   UNL     1      16.303   5.854  22.425  0.00  0.00    +0.000 C 
ATOM     32  C   UNL     1      16.737   6.079  23.673  0.00  0.00    +0.000 C 
BRANCH  32  34
ATOM     33  N   UNL     1      19.028   3.423  25.013  0.00  0.00    +0.000 NA
ATOM     34  C   UNL     1      17.297   5.051  24.567  0.00  0.00    +0.000 A 
ATOM     35  C   UNL     1      16.674   4.728  25.767  0.00  0.00    +0.000 A 
ATOM     36  C   UNL     1      18.462   4.375  24.238  0.00  0.00    +0.000 A 
ATOM     37  C   UNL     1      17.227   3.753  26.591  0.00  0.00    +0.000 A 
ATOM     38  C   UNL     1      18.395   3.136  26.172  0.00  0.00    +0.000 A 
ENDBRANCH  32  34
ENDBRANCH  30  31
ENDBRANCH   9  30
TORSDOF 9
ENDMDL
MODEL 7
REMARK minimizedAffinity -7.2585268
REMARK minimizedRMSD -1
REMARK  Name = 53861323
REMARK  10 active torsions:
REMARK  status: ('A' for Active; 'I' for Inactive)
REMARK    1  A    between atoms: S_2  and  C_20
REMARK    2  A    between atoms: S_2  and  C_24
REMARK    3  A    between atoms: O_5  and  C_21
REMARK    4  A    between atoms: O_8  and  N_11
REMARK    5  A    between atoms: O_8  and  C_32
REMARK    6  A    between atoms: N_10  and  CA_16
REMARK    7  A    between atoms: CA_18  and  C_21
REMARK    8  A    between atoms: C_22  and  C_23
REMARK    9  A    between atoms: C_23  and  C_25
REMARK   10  A    between atoms: C_26  and  C_28
REMARK                            x       y       z     vdW  Elec       q    Type
REMARK                         _______ _______ _______ _____ _____    ______ ____
ROOT
ATOM      1  S   UNL     1      16.321   5.407  21.583  0.00  0.00    +0.000 S 
ATOM      2  O   UNL     1      12.980   6.965  24.429  0.00  0.00    +0.000 OA
ATOM      3  N   UNL     1      14.362   6.938  22.516  0.00  0.00    +0.000 N 
ATOM      4  C   UNL     1      14.552   5.676  21.824  0.00  0.00    +0.000 C 
ATOM      5  CA  UNL     1      13.919   5.008  23.062  0.00  0.00    +0.000 C 
ATOM      6  C   UNL     1      13.594   6.458  23.520  0.00  0.00    +0.000 C 
ATOM      7  CA  UNL     1      14.878   8.123  22.090  0.00  0.00    +0.000 C 
ATOM      8  C   UNL     1      16.510   6.908  20.559  0.00  0.00    +0.000 C 
ATOM      9  C   UNL     1      15.865   8.157  21.158  0.00  0.00    +0.000 C 
ENDROOT
BRANCH   5  11
ATOM     10  O   UNL     1      12.128   3.651  24.969  0.00  0.00    +0.000 OA
ATOM     11  N   UNL     1      12.739   4.197  22.770  0.00  0.00    +0.000 N 
ATOM     12  C   UNL     1      11.972   3.606  23.760  0.00  0.00    +0.000 C 
ATOM     13  H   UNL     1      15.333   2.513  22.299  0.00  0.00    +0.000 HD
BRANCH  12  15
ATOM     14  N   UNL     1      11.006   1.728  22.546  0.00  0.00    +0.000 NA
ATOM     15  C   UNL     1      10.806   2.824  23.215  0.00  0.00    +0.000 C 
BRANCH  15  19
ATOM     16  S   UNL     1       7.264   4.645  23.302  0.00  0.00    +0.000 S 
ATOM     17  N   UNL     1       8.642   2.780  24.445  0.00  0.00    +0.000 NA
ATOM     18  N   UNL     1       6.468   3.100  25.315  0.00  0.00    +0.000 N 
ATOM     19  C   UNL     1       9.428   3.332  23.452  0.00  0.00    +0.000 A 
ATOM     20  C   UNL     1       8.853   4.354  22.726  0.00  0.00    +0.000 A 
ATOM     21  C   UNL     1       7.481   3.395  24.458  0.00  0.00    +0.000 A 
ATOM     22  H   UNL     1      11.451   7.340  24.007  0.00  0.00    +0.000 HD
ATOM     23  H   UNL     1      11.451   7.340  24.007  0.00  0.00    +0.000 HD
ENDBRANCH  15  19
BRANCH  14  24
ATOM     24  O   UNL     1       9.802   1.152  22.120  0.00  0.00    +0.000 OA
ATOM     25  C   UNL     1      10.009  -0.244  21.974  0.00  0.00    +0.000 C 
ENDBRANCH  14  24
ENDBRANCH  12  15
ENDBRANCH   5  11
BRANCH   7  27
ATOM     26  OXT UNL     1      14.977  10.051  23.477  0.00  0.00    +0.000 OA
ATOM     27  C   UNL     1      14.340   9.338  22.732  0.00  0.00    +0.000 C 
BRANCH  27  28
ATOM     28  O   UNL     1      13.059   9.506  22.357  0.00  0.00    +0.000 OA
ATOM     29  H   UNL     1      13.138   6.567  20.366  0.00  0.00    +0.000 HD
ENDBRANCH  27  28
ENDBRANCH   7  27
BRANCH   9  30
ATOM     30  S   UNL     1      16.522   9.669  20.543  0.00  0.00    +0.000 S 
BRANCH  30  31
ATOM     31  C   UNL     1      18.006   9.046  19.949  0.00  0.00    +0.000 C 
ATOM     32  C   UNL     1      19.075   9.831  19.757  0.00  0.00    +0.000 C 
BRANCH  32  34
ATOM     33  N   UNL     1      21.739   8.723  17.355  0.00  0.00    +0.000 NA
ATOM     34  C   UNL     1      20.376   9.369  19.243  0.00  0.00    +0.000 A 
ATOM     35  C   UNL     1      21.447   9.145  20.102  0.00  0.00    +0.000 A 
ATOM     36  C   UNL     1      20.573   9.145  17.890  0.00  0.00    +0.000 A 
ATOM     37  C   UNL     1      22.664   8.710  19.588  0.00  0.00    +0.000 A 
ATOM     38  C   UNL     1      22.758   8.516  18.220  0.00  0.00    +0.000 A 
ENDBRANCH  32  34
ENDBRANCH  30  31
ENDBRANCH   9  30
TORSDOF 9
ENDMDL
MODEL 8
REMARK minimizedAffinity -7.21891451
REMARK minimizedRMSD -1
REMARK  Name = 53861323
REMARK  10 active torsions:
REMARK  status: ('A' for Active; 'I' for Inactive)
REMARK    1  A    between atoms: S_2  and  C_20
REMARK    2  A    between atoms: S_2  and  C_24
REMARK    3  A    between atoms: O_5  and  C_21
REMARK    4  A    between atoms: O_8  and  N_11
REMARK    5  A    between atoms: O_8  and  C_32
REMARK    6  A    between atoms: N_10  and  CA_16
REMARK    7  A    between atoms: CA_18  and  C_21
REMARK    8  A    between atoms: C_22  and  C_23
REMARK    9  A    between atoms: C_23  and  C_25
REMARK   10  A    between atoms: C_26  and  C_28
REMARK                            x       y       z     vdW  Elec       q    Type
REMARK                         _______ _______ _______ _____ _____    ______ ____
ROOT
ATOM      1  S   UNL     1      18.356   5.955  18.908  0.00  0.00    +0.000 S 
ATOM      2  O   UNL     1      18.629  10.518  18.022  0.00  0.00    +0.000 OA
ATOM      3  N   UNL     1      18.285   8.577  19.319  0.00  0.00    +0.000 N 
ATOM      4  C   UNL     1      19.247   7.496  19.206  0.00  0.00    +0.000 C 
ATOM      5  CA  UNL     1      19.785   8.230  17.960  0.00  0.00    +0.000 C 
ATOM      6  C   UNL     1      18.843   9.388  18.393  0.00  0.00    +0.000 C 
ATOM      7  CA  UNL     1      17.230   8.568  20.179  0.00  0.00    +0.000 C 
ATOM      8  C   UNL     1      17.457   6.052  20.495  0.00  0.00    +0.000 C 
ATOM      9  C   UNL     1      16.825   7.415  20.771  0.00  0.00    +0.000 C 
ENDROOT
BRANCH   5  11
ATOM     10  O   UNL     1      21.877   7.667  15.963  0.00  0.00    +0.000 OA
ATOM     11  N   UNL     1      21.206   8.561  18.026  0.00  0.00    +0.000 N 
ATOM     12  C   UNL     1      22.098   8.241  17.016  0.00  0.00    +0.000 C 
ATOM     13  H   UNL     1      20.624   6.025  19.761  0.00  0.00    +0.000 HD
BRANCH  12  15
ATOM     14  N   UNL     1      24.280   9.088  16.342  0.00  0.00    +0.000 NA
ATOM     15  C   UNL     1      23.507   8.690  17.307  0.00  0.00    +0.000 C 
BRANCH  15  19
ATOM     16  S   UNL     1      24.905   7.898  20.952  0.00  0.00    +0.000 S 
ATOM     17  N   UNL     1      24.023   9.819  19.464  0.00  0.00    +0.000 NA
ATOM     18  N   UNL     1      24.644  10.450  21.656  0.00  0.00    +0.000 N 
ATOM     19  C   UNL     1      23.993   8.661  18.712  0.00  0.00    +0.000 A 
ATOM     20  C   UNL     1      24.433   7.519  19.348  0.00  0.00    +0.000 A 
ATOM     21  C   UNL     1      24.485   9.537  20.661  0.00  0.00    +0.000 A 
ATOM     22  H   UNL     1      20.771   5.544  19.322  0.00  0.00    +0.000 HD
ATOM     23  H   UNL     1      20.771   5.544  19.322  0.00  0.00    +0.000 HD
ENDBRANCH  15  19
BRANCH  14  24
ATOM     24  O   UNL     1      25.548   9.457  16.812  0.00  0.00    +0.000 OA
ATOM     25  C   UNL     1      26.350   9.797  15.692  0.00  0.00    +0.000 C 
ENDBRANCH  14  24
ENDBRANCH  12  15
ENDBRANCH   5  11
BRANCH   7  27
ATOM     26  OXT UNL     1      16.771  10.614  21.298  0.00  0.00    +0.000 OA
ATOM     27  C   UNL     1      16.541   9.857  20.380  0.00  0.00    +0.000 C 
BRANCH  27  28
ATOM     28  O   UNL     1      15.641  10.036  19.396  0.00  0.00    +0.000 OA
ATOM     29  H   UNL     1      16.475   6.919  17.914  0.00  0.00    +0.000 HD
ENDBRANCH  27  28
ENDBRANCH   7  27
BRANCH   9  30
ATOM     30  S   UNL     1      15.501   7.371  21.929  0.00  0.00    +0.000 S 
BRANCH  30  31
ATOM     31  C   UNL     1      15.063   5.727  21.709  0.00  0.00    +0.000 C 
ATOM     32  C   UNL     1      13.865   5.258  22.085  0.00  0.00    +0.000 C 
BRANCH  32  34
ATOM     33  N   UNL     1      11.693   2.199  22.231  0.00  0.00    +0.000 NA
ATOM     34  C   UNL     1      13.424   3.861  21.936  0.00  0.00    +0.000 A 
ATOM     35  C   UNL     1      14.264   2.899  21.386  0.00  0.00    +0.000 A 
ATOM     36  C   UNL     1      12.159   3.463  22.340  0.00  0.00    +0.000 A 
ATOM     37  C   UNL     1      13.819   1.587  21.257  0.00  0.00    +0.000 A 
ATOM     38  C   UNL     1      12.537   1.291  21.691  0.00  0.00    +0.000 A 
ENDBRANCH  32  34
ENDBRANCH  30  31
ENDBRANCH   9  30
TORSDOF 9
ENDMDL
MODEL 9
REMARK minimizedAffinity -7.21287775
REMARK minimizedRMSD -1
REMARK  Name = 53861323
REMARK  10 active torsions:
REMARK  status: ('A' for Active; 'I' for Inactive)
REMARK    1  A    between atoms: S_2  and  C_20
REMARK    2  A    between atoms: S_2  and  C_24
REMARK    3  A    between atoms: O_5  and  C_21
REMARK    4  A    between atoms: O_8  and  N_11
REMARK    5  A    between atoms: O_8  and  C_32
REMARK    6  A    between atoms: N_10  and  CA_16
REMARK    7  A    between atoms: CA_18  and  C_21
REMARK    8  A    between atoms: C_22  and  C_23
REMARK    9  A    between atoms: C_23  and  C_25
REMARK   10  A    between atoms: C_26  and  C_28
REMARK                            x       y       z     vdW  Elec       q    Type
REMARK                         _______ _______ _______ _____ _____    ______ ____
ROOT
ATOM      1  S   UNL     1      16.497   5.391  22.411  0.00  0.00    +0.000 S 
ATOM      2  O   UNL     1      13.453   7.369  25.329  0.00  0.00    +0.000 OA
ATOM      3  N   UNL     1      14.536   6.962  23.272  0.00  0.00    +0.000 N 
ATOM      4  C   UNL     1      14.763   5.583  22.876  0.00  0.00    +0.000 C 
ATOM      5  CA  UNL     1      14.394   5.204  24.326  0.00  0.00    +0.000 C 
ATOM      6  C   UNL     1      13.980   6.696  24.475  0.00  0.00    +0.000 C 
ATOM      7  CA  UNL     1      14.850   8.036  22.497  0.00  0.00    +0.000 C 
ATOM      8  C   UNL     1      16.366   6.596  21.045  0.00  0.00    +0.000 C 
ATOM      9  C   UNL     1      15.681   7.906  21.432  0.00  0.00    +0.000 C 
ENDROOT
BRANCH   5  11
ATOM     10  O   UNL     1      13.562   3.643  26.682  0.00  0.00    +0.000 OA
ATOM     11  N   UNL     1      13.283   4.263  24.436  0.00  0.00    +0.000 N 
ATOM     12  C   UNL     1      12.989   3.584  25.607  0.00  0.00    +0.000 C 
ATOM     13  H   UNL     1      15.701   2.892  23.000  0.00  0.00    +0.000 HD
BRANCH  12  15
ATOM     14  N   UNL     1      11.423   1.936  26.481  0.00  0.00    +0.000 NA
ATOM     15  C   UNL     1      11.796   2.673  25.479  0.00  0.00    +0.000 C 
BRANCH  15  19
ATOM     16  S   UNL     1      10.309   2.040  21.838  0.00  0.00    +0.000 S 
ATOM     17  N   UNL     1       9.987   3.471  23.966  0.00  0.00    +0.000 NA
ATOM     18  N   UNL     1       8.452   3.905  22.222  0.00  0.00    +0.000 N 
ATOM     19  C   UNL     1      11.061   2.631  24.186  0.00  0.00    +0.000 A 
ATOM     20  C   UNL     1      11.386   1.783  23.148  0.00  0.00    +0.000 A 
ATOM     21  C   UNL     1       9.512   3.248  22.762  0.00  0.00    +0.000 A 
ATOM     22  H   UNL     1      15.107   3.456  22.339  0.00  0.00    +0.000 HD
ATOM     23  H   UNL     1      15.107   3.456  22.339  0.00  0.00    +0.000 HD
ENDBRANCH  15  19
BRANCH  14  24
ATOM     24  O   UNL     1      10.303   1.157  26.165  0.00  0.00    +0.000 OA
ATOM     25  C   UNL     1      10.534  -0.160  26.638  0.00  0.00    +0.000 C 
ENDBRANCH  14  24
ENDBRANCH  12  15
ENDBRANCH   5  11
BRANCH   7  27
ATOM     26  OXT UNL     1      13.107   9.621  22.811  0.00  0.00    +0.000 OA
ATOM     27  C   UNL     1      14.279   9.331  22.915  0.00  0.00    +0.000 C 
BRANCH  27  28
ATOM     28  O   UNL     1      15.259  10.105  23.415  0.00  0.00    +0.000 OA
ATOM     29  H   UNL     1      17.699   7.595  22.826  0.00  0.00    +0.000 HD
ENDBRANCH  27  28
ENDBRANCH   7  27
BRANCH   9  30
ATOM     30  S   UNL     1      16.068   9.258  20.375  0.00  0.00    +0.000 S 
BRANCH  30  31
ATOM     31  C   UNL     1      17.692   8.821  20.035  0.00  0.00    +0.000 C 
ATOM     32  C   UNL     1      18.542   9.670  19.441  0.00  0.00    +0.000 C 
BRANCH  32  34
ATOM     33  N   UNL     1      21.610   8.870  17.429  0.00  0.00    +0.000 NA
ATOM     34  C   UNL     1      19.945   9.362  19.111  0.00  0.00    +0.000 A 
ATOM     35  C   UNL     1      20.912   9.271  20.106  0.00  0.00    +0.000 A 
ATOM     36  C   UNL     1      20.342   9.154  17.799  0.00  0.00    +0.000 A 
ATOM     37  C   UNL     1      22.228   8.980  19.764  0.00  0.00    +0.000 A 
ATOM     38  C   UNL     1      22.523   8.790  18.423  0.00  0.00    +0.000 A 
ENDBRANCH  32  34
ENDBRANCH  30  31
ENDBRANCH   9  30
TORSDOF 9
ENDMDL
MODEL 10
REMARK minimizedAffinity -7.11723042
REMARK minimizedRMSD -1
REMARK  Name = 53861323
REMARK  10 active torsions:
REMARK  status: ('A' for Active; 'I' for Inactive)
REMARK    1  A    between atoms: S_2  and  C_20
REMARK    2  A    between atoms: S_2  and  C_24
REMARK    3  A    between atoms: O_5  and  C_21
REMARK    4  A    between atoms: O_8  and  N_11
REMARK    5  A    between atoms: O_8  and  C_32
REMARK    6  A    between atoms: N_10  and  CA_16
REMARK    7  A    between atoms: CA_18  and  C_21
REMARK    8  A    between atoms: C_22  and  C_23
REMARK    9  A    between atoms: C_23  and  C_25
REMARK   10  A    between atoms: C_26  and  C_28
REMARK                            x       y       z     vdW  Elec       q    Type
REMARK                         _______ _______ _______ _____ _____    ______ ____
ROOT
ATOM      1  S   UNL     1      13.561   6.799  22.523  0.00  0.00    +0.000 S 
ATOM      2  O   UNL     1      17.796   5.497  23.959  0.00  0.00    +0.000 OA
ATOM      3  N   UNL     1      15.610   5.217  23.113  0.00  0.00    +0.000 N 
ATOM      4  C   UNL     1      15.163   6.108  22.058  0.00  0.00    +0.000 C 
ATOM      5  CA  UNL     1      16.402   6.967  22.386  0.00  0.00    +0.000 C 
ATOM      6  C   UNL     1      16.826   5.780  23.296  0.00  0.00    +0.000 C 
ATOM      7  CA  UNL     1      14.870   4.183  23.599  0.00  0.00    +0.000 C 
ATOM      8  C   UNL     1      12.757   5.160  22.569  0.00  0.00    +0.000 C 
ATOM      9  C   UNL     1      13.538   4.103  23.348  0.00  0.00    +0.000 C 
ENDROOT
BRANCH   5  11
ATOM     10  O   UNL     1      17.883   9.420  21.700  0.00  0.00    +0.000 OA
ATOM     11  N   UNL     1      17.292   7.194  21.250  0.00  0.00    +0.000 N 
ATOM     12  C   UNL     1      17.937   8.401  21.032  0.00  0.00    +0.000 C 
ATOM     13  H   UNL     1      14.311   7.408  20.325  0.00  0.00    +0.000 HD
BRANCH  12  15
ATOM     14  N   UNL     1      18.286   8.616  18.632  0.00  0.00    +0.000 NA
ATOM     15  C   UNL     1      18.805   8.393  19.801  0.00  0.00    +0.000 C 
BRANCH  15  19
ATOM     16  S   UNL     1      22.500   6.959  20.199  0.00  0.00    +0.000 S 
ATOM     17  N   UNL     1      21.162   9.163  20.018  0.00  0.00    +0.000 NA
ATOM     18  N   UNL     1      23.500   9.424  20.247  0.00  0.00    +0.000 N 
ATOM     19  C   UNL     1      20.259   8.120  19.951  0.00  0.00    +0.000 A 
ATOM     20  C   UNL     1      20.797   6.852  20.032  0.00  0.00    +0.000 A 
ATOM     21  C   UNL     1      22.372   8.670  20.150  0.00  0.00    +0.000 A 
ATOM     22  H   UNL     1      19.024   5.837  23.656  0.00  0.00    +0.000 HD
ATOM     23  H   UNL     1      19.024   5.837  23.656  0.00  0.00    +0.000 HD
ENDBRANCH  15  19
BRANCH  14  24
ATOM     24  O   UNL     1      19.249   8.561  17.616  0.00  0.00    +0.000 OA
ATOM     25  C   UNL     1      19.285   9.825  16.973  0.00  0.00    +0.000 C 
ENDBRANCH  14  24
ENDBRANCH  12  15
ENDBRANCH   5  11
BRANCH   7  27
ATOM     26  OXT UNL     1      16.192   2.250  24.004  0.00  0.00    +0.000 OA
ATOM     27  C   UNL     1      15.588   3.206  24.440  0.00  0.00    +0.000 C 
BRANCH  27  28
ATOM     28  O   UNL     1      15.455   3.553  25.732  0.00  0.00    +0.000 OA
ATOM     29  H   UNL     1      13.471   6.374  24.888  0.00  0.00    +0.000 HD
ENDBRANCH  27  28
ENDBRANCH   7  27
BRANCH   9  30
ATOM     30  S   UNL     1      12.558   2.756  23.912  0.00  0.00    +0.000 S 
BRANCH  30  31
ATOM     31  C   UNL     1      11.044   3.564  23.915  0.00  0.00    +0.000 C 
ATOM     32  C   UNL     1       9.887   2.895  23.816  0.00  0.00    +0.000 C 
BRANCH  32  34
ATOM     33  N   UNL     1       7.018   5.091  22.792  0.00  0.00    +0.000 NA
ATOM     34  C   UNL     1       8.553   3.521  23.802  0.00  0.00    +0.000 A 
ATOM     35  C   UNL     1       7.586   3.166  24.737  0.00  0.00    +0.000 A 
ATOM     36  C   UNL     1       8.221   4.481  22.859  0.00  0.00    +0.000 A 
ATOM     37  C   UNL     1       6.335   3.773  24.699  0.00  0.00    +0.000 A 
ATOM     38  C   UNL     1       6.103   4.720  23.716  0.00  0.00    +0.000 A 
ENDBRANCH  32  34
ENDBRANCH  30  31
ENDBRANCH   9  30
TORSDOF 9
ENDMDL
MODEL 11
REMARK minimizedAffinity -7.1131072
REMARK minimizedRMSD -1
REMARK  Name = 53861323
REMARK  10 active torsions:
REMARK  status: ('A' for Active; 'I' for Inactive)
REMARK    1  A    between atoms: S_2  and  C_20
REMARK    2  A    between atoms: S_2  and  C_24
REMARK    3  A    between atoms: O_5  and  C_21
REMARK    4  A    between atoms: O_8  and  N_11
REMARK    5  A    between atoms: O_8  and  C_32
REMARK    6  A    between atoms: N_10  and  CA_16
REMARK    7  A    between atoms: CA_18  and  C_21
REMARK    8  A    between atoms: C_22  and  C_23
REMARK    9  A    between atoms: C_23  and  C_25
REMARK   10  A    between atoms: C_26  and  C_28
REMARK                            x       y       z     vdW  Elec       q    Type
REMARK                         _______ _______ _______ _____ _____    ______ ____
ROOT
ATOM      1  S   UNL     1      16.111   5.543  21.536  0.00  0.00    +0.000 S 
ATOM      2  O   UNL     1      13.364   7.383  24.814  0.00  0.00    +0.000 OA
ATOM      3  N   UNL     1      14.474   7.254  22.736  0.00  0.00    +0.000 N 
ATOM      4  C   UNL     1      14.430   5.997  22.010  0.00  0.00    +0.000 C 
ATOM      5  CA  UNL     1      13.891   5.372  23.313  0.00  0.00    +0.000 C 
ATOM      6  C   UNL     1      13.793   6.836  23.826  0.00  0.00    +0.000 C 
ATOM      7  CA  UNL     1      15.061   8.386  22.259  0.00  0.00    +0.000 C 
ATOM      8  C   UNL     1      16.334   7.039  20.513  0.00  0.00    +0.000 C 
ATOM      9  C   UNL     1      15.916   8.336  21.206  0.00  0.00    +0.000 C 
ENDROOT
BRANCH   5  11
ATOM     10  O   UNL     1      12.954   2.922  24.657  0.00  0.00    +0.000 OA
ATOM     11  N   UNL     1      12.601   4.703  23.169  0.00  0.00    +0.000 N 
ATOM     12  C   UNL     1      12.274   3.547  23.860  0.00  0.00    +0.000 C 
ATOM     13  H   UNL     1      14.443   3.996  20.742  0.00  0.00    +0.000 HD
BRANCH  12  15
ATOM     14  N   UNL     1       9.890   3.877  23.488  0.00  0.00    +0.000 NA
ATOM     15  C   UNL     1      10.887   3.047  23.551  0.00  0.00    +0.000 C 
BRANCH  15  19
ATOM     16  S   UNL     1      10.208  -0.876  23.670  0.00  0.00    +0.000 S 
ATOM     17  N   UNL     1      10.821   1.053  22.063  0.00  0.00    +0.000 NA
ATOM     18  N   UNL     1      10.649  -1.078  21.055  0.00  0.00    +0.000 N 
ATOM     19  C   UNL     1      10.682   1.591  23.328  0.00  0.00    +0.000 A 
ATOM     20  C   UNL     1      10.352   0.701  24.328  0.00  0.00    +0.000 A 
ATOM     21  C   UNL     1      10.595  -0.240  22.124  0.00  0.00    +0.000 A 
ATOM     22  H   UNL     1      13.900   1.082  26.466  0.00  0.00    +0.000 HD
ATOM     23  H   UNL     1      13.900   1.082  26.466  0.00  0.00    +0.000 HD
ENDBRANCH  15  19
BRANCH  14  24
ATOM     24  O   UNL     1       8.686   3.222  23.198  0.00  0.00    +0.000 OA
ATOM     25  C   UNL     1       8.076   3.886  22.102  0.00  0.00    +0.000 C 
ENDBRANCH  14  24
ENDBRANCH  12  15
ENDBRANCH   5  11
BRANCH   7  27
ATOM     26  OXT UNL     1      15.586  10.349  23.492  0.00  0.00    +0.000 OA
ATOM     27  C   UNL     1      14.751   9.635  22.980  0.00  0.00    +0.000 C 
BRANCH  27  28
ATOM     28  O   UNL     1      13.420   9.833  22.970  0.00  0.00    +0.000 OA
ATOM     29  H   UNL     1      12.875   6.837  21.145  0.00  0.00    +0.000 HD
ENDBRANCH  27  28
ENDBRANCH   7  27
BRANCH   9  30
ATOM     30  S   UNL     1      16.654   9.782  20.527  0.00  0.00    +0.000 S 
BRANCH  30  31
ATOM     31  C   UNL     1      17.896   9.005  19.635  0.00  0.00    +0.000 C 
ATOM     32  C   UNL     1      18.749   9.694  18.865  0.00  0.00    +0.000 C 
BRANCH  32  34
ATOM     33  N   UNL     1      20.693   8.466  15.897  0.00  0.00    +0.000 NA
ATOM     34  C   UNL     1      19.833   9.096  18.066  0.00  0.00    +0.000 A 
ATOM     35  C   UNL     1      20.985   8.607  18.673  0.00  0.00    +0.000 A 
ATOM     36  C   UNL     1      19.737   9.002  16.686  0.00  0.00    +0.000 A 
ATOM     37  C   UNL     1      21.991   8.048  17.892  0.00  0.00    +0.000 A 
ATOM     38  C   UNL     1      21.799   8.002  16.521  0.00  0.00    +0.000 A 
ENDBRANCH  32  34
ENDBRANCH  30  31
ENDBRANCH   9  30
TORSDOF 9
ENDMDL
MODEL 12
REMARK minimizedAffinity -7.03345728
REMARK minimizedRMSD -1
REMARK  Name = 53861323
REMARK  10 active torsions:
REMARK  status: ('A' for Active; 'I' for Inactive)
REMARK    1  A    between atoms: S_2  and  C_20
REMARK    2  A    between atoms: S_2  and  C_24
REMARK    3  A    between atoms: O_5  and  C_21
REMARK    4  A    between atoms: O_8  and  N_11
REMARK    5  A    between atoms: O_8  and  C_32
REMARK    6  A    between atoms: N_10  and  CA_16
REMARK    7  A    between atoms: CA_18  and  C_21
REMARK    8  A    between atoms: C_22  and  C_23
REMARK    9  A    between atoms: C_23  and  C_25
REMARK   10  A    between atoms: C_26  and  C_28
REMARK                            x       y       z     vdW  Elec       q    Type
REMARK                         _______ _______ _______ _____ _____    ______ ____
ROOT
ATOM      1  S   UNL     1      13.795   6.058  24.549  0.00  0.00    +0.000 S 
ATOM      2  O   UNL     1      17.558   3.975  22.765  0.00  0.00    +0.000 OA
ATOM      3  N   UNL     1      15.260   4.436  23.042  0.00  0.00    +0.000 N 
ATOM      4  C   UNL     1      14.840   5.825  23.096  0.00  0.00    +0.000 C 
ATOM      5  CA  UNL     1      16.334   6.173  23.261  0.00  0.00    +0.000 C 
ATOM      6  C   UNL     1      16.588   4.672  22.946  0.00  0.00    +0.000 C 
ATOM      7  CA  UNL     1      14.401   3.380  23.074  0.00  0.00    +0.000 C 
ATOM      8  C   UNL     1      12.537   4.873  23.958  0.00  0.00    +0.000 C 
ATOM      9  C   UNL     1      13.113   3.544  23.471  0.00  0.00    +0.000 C 
ENDROOT
BRANCH   5  11
ATOM     10  O   UNL     1      15.884   9.077  23.041  0.00  0.00    +0.000 OA
ATOM     11  N   UNL     1      16.852   7.091  22.250  0.00  0.00    +0.000 N 
ATOM     12  C   UNL     1      16.568   8.446  22.252  0.00  0.00    +0.000 C 
ATOM     13  H   UNL     1      14.413   5.504  21.099  0.00  0.00    +0.000 HD
BRANCH  12  15
ATOM     14  N   UNL     1      16.839  10.394  20.815  0.00  0.00    +0.000 NA
ATOM     15  C   UNL     1      17.218   9.188  21.113  0.00  0.00    +0.000 C 
BRANCH  15  19
ATOM     16  S   UNL     1      20.535   7.613  19.569  0.00  0.00    +0.000 S 
ATOM     17  N   UNL     1      17.996   7.864  19.154  0.00  0.00    +0.000 NA
ATOM     18  N   UNL     1      19.169   6.648  17.501  0.00  0.00    +0.000 N 
ATOM     19  C   UNL     1      18.293   8.512  20.337  0.00  0.00    +0.000 A 
ATOM     20  C   UNL     1      19.616   8.484  20.725  0.00  0.00    +0.000 A 
ATOM     21  C   UNL     1      19.102   7.353  18.661  0.00  0.00    +0.000 A 
ATOM     22  H   UNL     1      20.285  12.573  20.358  0.00  0.00    +0.000 HD
ATOM     23  H   UNL     1      20.285  12.573  20.358  0.00  0.00    +0.000 HD
ENDBRANCH  15  19
BRANCH  14  24
ATOM     24  O   UNL     1      17.556  10.910  19.727  0.00  0.00    +0.000 OA
ATOM     25  C   UNL     1      16.628  11.242  18.706  0.00  0.00    +0.000 C 
ENDBRANCH  14  24
ENDBRANCH  12  15
ENDBRANCH   5  11
BRANCH   7  27
ATOM     26  OXT UNL     1      15.406   1.270  23.504  0.00  0.00    +0.000 OA
ATOM     27  C   UNL     1      14.966   2.068  22.705  0.00  0.00    +0.000 C 
BRANCH  27  28
ATOM     28  O   UNL     1      14.908   1.921  21.369  0.00  0.00    +0.000 OA
ATOM     29  H   UNL     1      13.436   5.127  20.967  0.00  0.00    +0.000 HD
ENDBRANCH  27  28
ENDBRANCH   7  27
BRANCH   9  30
ATOM     30  S   UNL     1      11.958   2.217  23.475  0.00  0.00    +0.000 S 
BRANCH  30  31
ATOM     31  C   UNL     1      10.540   3.152  23.717  0.00  0.00    +0.000 C 
ATOM     32  C   UNL     1       9.316   2.610  23.645  0.00  0.00    +0.000 C 
BRANCH  32  34
ATOM     33  N   UNL     1       6.494   5.006  23.019  0.00  0.00    +0.000 NA
ATOM     34  C   UNL     1       8.056   3.350  23.832  0.00  0.00    +0.000 A 
ATOM     35  C   UNL     1       7.250   3.125  24.943  0.00  0.00    +0.000 A 
ATOM     36  C   UNL     1       7.637   4.294  22.907  0.00  0.00    +0.000 A 
ATOM     37  C   UNL     1       6.066   3.838  25.092  0.00  0.00    +0.000 A 
ATOM     38  C   UNL     1       5.735   4.759  24.111  0.00  0.00    +0.000 A 
ENDBRANCH  32  34
ENDBRANCH  30  31
ENDBRANCH   9  30
TORSDOF 9
ENDMDL
MODEL 13
REMARK minimizedAffinity -6.93260431
REMARK minimizedRMSD -1
REMARK  Name = 53861323
REMARK  10 active torsions:
REMARK  status: ('A' for Active; 'I' for Inactive)
REMARK    1  A    between atoms: S_2  and  C_20
REMARK    2  A    between atoms: S_2  and  C_24
REMARK    3  A    between atoms: O_5  and  C_21
REMARK    4  A    between atoms: O_8  and  N_11
REMARK    5  A    between atoms: O_8  and  C_32
REMARK    6  A    between atoms: N_10  and  CA_16
REMARK    7  A    between atoms: CA_18  and  C_21
REMARK    8  A    between atoms: C_22  and  C_23
REMARK    9  A    between atoms: C_23  and  C_25
REMARK   10  A    between atoms: C_26  and  C_28
REMARK                            x       y       z     vdW  Elec       q    Type
REMARK                         _______ _______ _______ _____ _____    ______ ____
ROOT
ATOM      1  S   UNL     1      13.709   4.827  21.296  0.00  0.00    +0.000 S 
ATOM      2  O   UNL     1      15.346   8.367  23.841  0.00  0.00    +0.000 OA
ATOM      3  N   UNL     1      14.964   6.114  23.251  0.00  0.00    +0.000 N 
ATOM      4  C   UNL     1      15.169   5.722  21.868  0.00  0.00    +0.000 C 
ATOM      5  CA  UNL     1      15.219   7.230  21.546  0.00  0.00    +0.000 C 
ATOM      6  C   UNL     1      15.230   7.430  23.088  0.00  0.00    +0.000 C 
ATOM      7  CA  UNL     1      14.629   5.246  24.244  0.00  0.00    +0.000 C 
ATOM      8  C   UNL     1      13.916   3.500  22.534  0.00  0.00    +0.000 C 
ATOM      9  C   UNL     1      14.159   4.006  23.955  0.00  0.00    +0.000 C 
ENDROOT
BRANCH   5  11
ATOM     10  O   UNL     1      15.624   9.592  19.831  0.00  0.00    +0.000 OA
ATOM     11  N   UNL     1      16.447   7.661  20.881  0.00  0.00    +0.000 N 
ATOM     12  C   UNL     1      16.513   8.799  20.094  0.00  0.00    +0.000 C 
ATOM     13  H   UNL     1      15.120   5.336  19.263  0.00  0.00    +0.000 HD
BRANCH  12  15
ATOM     14  N   UNL     1      18.127  10.117  18.833  0.00  0.00    +0.000 NA
ATOM     15  C   UNL     1      17.884   9.041  19.520  0.00  0.00    +0.000 C 
BRANCH  15  19
ATOM     16  S   UNL     1      20.924   6.748  20.690  0.00  0.00    +0.000 S 
ATOM     17  N   UNL     1      19.053   6.928  18.916  0.00  0.00    +0.000 NA
ATOM     18  N   UNL     1      20.445   5.028  18.719  0.00  0.00    +0.000 N 
ATOM     19  C   UNL     1      18.947   8.026  19.747  0.00  0.00    +0.000 A 
ATOM     20  C   UNL     1      19.874   8.101  20.766  0.00  0.00    +0.000 A 
ATOM     21  C   UNL     1      20.061   6.186  19.317  0.00  0.00    +0.000 A 
ATOM     22  H   UNL     1      21.787  11.529  19.390  0.00  0.00    +0.000 HD
ATOM     23  H   UNL     1      21.787  11.529  19.390  0.00  0.00    +0.000 HD
ENDBRANCH  15  19
BRANCH  14  24
ATOM     24  O   UNL     1      19.452  10.156  18.380  0.00  0.00    +0.000 OA
ATOM     25  C   UNL     1      19.449   9.896  16.985  0.00  0.00    +0.000 C 
ENDBRANCH  14  24
ENDBRANCH  12  15
ENDBRANCH   5  11
BRANCH   7  27
ATOM     26  OXT UNL     1      13.888   6.357  26.210  0.00  0.00    +0.000 OA
ATOM     27  C   UNL     1      14.760   5.752  25.624  0.00  0.00    +0.000 C 
BRANCH  27  28
ATOM     28  O   UNL     1      15.977   5.433  26.099  0.00  0.00    +0.000 OA
ATOM     29  H   UNL     1      16.875   3.848  23.051  0.00  0.00    +0.000 HD
ENDBRANCH  27  28
ENDBRANCH   7  27
BRANCH   9  30
ATOM     30  S   UNL     1      13.766   2.836  25.210  0.00  0.00    +0.000 S 
BRANCH  30  31
ATOM     31  C   UNL     1      12.155   2.512  24.719  0.00  0.00    +0.000 C 
ATOM     32  C   UNL     1      11.334   3.486  24.302  0.00  0.00    +0.000 C 
BRANCH  32  34
ATOM     33  N   UNL     1       7.923   1.952  23.963  0.00  0.00    +0.000 NA
ATOM     34  C   UNL     1       9.938   3.284  23.874  0.00  0.00    +0.000 A 
ATOM     35  C   UNL     1       9.315   4.182  23.014  0.00  0.00    +0.000 A 
ATOM     36  C   UNL     1       9.205   2.194  24.316  0.00  0.00    +0.000 A 
ATOM     37  C   UNL     1       7.997   3.966  22.628  0.00  0.00    +0.000 A 
ATOM     38  C   UNL     1       7.350   2.846  23.127  0.00  0.00    +0.000 A 
ENDBRANCH  32  34
ENDBRANCH  30  31
ENDBRANCH   9  30
TORSDOF 9
ENDMDL
MODEL 14
REMARK minimizedAffinity -6.92922354
REMARK minimizedRMSD -1
REMARK  Name = 53861323
REMARK  10 active torsions:
REMARK  status: ('A' for Active; 'I' for Inactive)
REMARK    1  A    between atoms: S_2  and  C_20
REMARK    2  A    between atoms: S_2  and  C_24
REMARK    3  A    between atoms: O_5  and  C_21
REMARK    4  A    between atoms: O_8  and  N_11
REMARK    5  A    between atoms: O_8  and  C_32
REMARK    6  A    between atoms: N_10  and  CA_16
REMARK    7  A    between atoms: CA_18  and  C_21
REMARK    8  A    between atoms: C_22  and  C_23
REMARK    9  A    between atoms: C_23  and  C_25
REMARK   10  A    between atoms: C_26  and  C_28
REMARK                            x       y       z     vdW  Elec       q    Type
REMARK                         _______ _______ _______ _____ _____    ______ ____
ROOT
ATOM      1  S   UNL     1      13.137   6.899  22.529  0.00  0.00    +0.000 S 
ATOM      2  O   UNL     1      17.525   5.804  23.640  0.00  0.00    +0.000 OA
ATOM      3  N   UNL     1      15.270   5.411  23.067  0.00  0.00    +0.000 N 
ATOM      4  C   UNL     1      14.695   6.176  21.974  0.00  0.00    +0.000 C 
ATOM      5  CA  UNL     1      15.944   7.077  22.072  0.00  0.00    +0.000 C 
ATOM      6  C   UNL     1      16.485   6.002  23.057  0.00  0.00    +0.000 C 
ATOM      7  CA  UNL     1      14.606   4.430  23.738  0.00  0.00    +0.000 C 
ATOM      8  C   UNL     1      12.376   5.268  22.839  0.00  0.00    +0.000 C 
ATOM      9  C   UNL     1      13.258   4.311  23.641  0.00  0.00    +0.000 C 
ENDROOT
BRANCH   5  11
ATOM     10  O   UNL     1      18.239   8.833  21.495  0.00  0.00    +0.000 OA
ATOM     11  N   UNL     1      16.705   7.185  20.830  0.00  0.00    +0.000 N 
ATOM     12  C   UNL     1      17.772   8.055  20.679  0.00  0.00    +0.000 C 
ATOM     13  H   UNL     1      14.015   8.761  20.570  0.00  0.00    +0.000 HD
BRANCH  12  15
ATOM     14  N   UNL     1      18.245   8.957  18.467  0.00  0.00    +0.000 NA
ATOM     15  C   UNL     1      18.403   7.984  19.312  0.00  0.00    +0.000 C 
BRANCH  15  19
ATOM     16  S   UNL     1      21.090   5.115  18.668  0.00  0.00    +0.000 S 
ATOM     17  N   UNL     1      18.610   5.731  18.276  0.00  0.00    +0.000 NA
ATOM     18  N   UNL     1      19.267   3.623  17.432  0.00  0.00    +0.000 N 
ATOM     19  C   UNL     1      19.200   6.781  18.951  0.00  0.00    +0.000 A 
ATOM     20  C   UNL     1      20.538   6.630  19.251  0.00  0.00    +0.000 A 
ATOM     21  C   UNL     1      19.512   4.797  18.072  0.00  0.00    +0.000 A 
ATOM     22  H   UNL     1      21.900   9.723  16.826  0.00  0.00    +0.000 HD
ATOM     23  H   UNL     1      21.900   9.723  16.826  0.00  0.00    +0.000 HD
ENDBRANCH  15  19
BRANCH  14  24
ATOM     24  O   UNL     1      18.899   8.703  17.254  0.00  0.00    +0.000 OA
ATOM     25  C   UNL     1      19.656   9.854  16.912  0.00  0.00    +0.000 C 
ENDBRANCH  14  24
ENDBRANCH  12  15
ENDBRANCH   5  11
BRANCH   7  27
ATOM     26  OXT UNL     1      15.965   2.541  24.221  0.00  0.00    +0.000 OA
ATOM     27  C   UNL     1      15.428   3.559  24.600  0.00  0.00    +0.000 C 
BRANCH  27  28
ATOM     28  O   UNL     1      15.473   4.079  25.840  0.00  0.00    +0.000 OA
ATOM     29  H   UNL     1      13.403   6.804  24.895  0.00  0.00    +0.000 HD
ENDBRANCH  27  28
ENDBRANCH   7  27
BRANCH   9  30
ATOM     30  S   UNL     1      12.370   3.026  24.450  0.00  0.00    +0.000 S 
BRANCH  30  31
ATOM     31  C   UNL     1      10.793   3.508  23.978  0.00  0.00    +0.000 C 
ATOM     32  C   UNL     1       9.707   2.794  24.308  0.00  0.00    +0.000 C 
BRANCH  32  34
ATOM     33  N   UNL     1       5.997   2.505  23.809  0.00  0.00    +0.000 NA
ATOM     34  C   UNL     1       8.326   3.142  23.932  0.00  0.00    +0.000 A 
ATOM     35  C   UNL     1       8.026   4.376  23.365  0.00  0.00    +0.000 A 
ATOM     36  C   UNL     1       7.284   2.249  24.130  0.00  0.00    +0.000 A 
ATOM     37  C   UNL     1       6.712   4.675  23.020  0.00  0.00    +0.000 A 
ATOM     38  C   UNL     1       5.743   3.715  23.261  0.00  0.00    +0.000 A 
ENDBRANCH  32  34
ENDBRANCH  30  31
ENDBRANCH   9  30
TORSDOF 9
ENDMDL
MODEL 15
REMARK minimizedAffinity -6.71375084
REMARK minimizedRMSD -1
REMARK  Name = 53861323
REMARK  10 active torsions:
REMARK  status: ('A' for Active; 'I' for Inactive)
REMARK    1  A    between atoms: S_2  and  C_20
REMARK    2  A    between atoms: S_2  and  C_24
REMARK    3  A    between atoms: O_5  and  C_21
REMARK    4  A    between atoms: O_8  and  N_11
REMARK    5  A    between atoms: O_8  and  C_32
REMARK    6  A    between atoms: N_10  and  CA_16
REMARK    7  A    between atoms: CA_18  and  C_21
REMARK    8  A    between atoms: C_22  and  C_23
REMARK    9  A    between atoms: C_23  and  C_25
REMARK   10  A    between atoms: C_26  and  C_28
REMARK                            x       y       z     vdW  Elec       q    Type
REMARK                         _______ _______ _______ _____ _____    ______ ____
ROOT
ATOM      1  S   UNL     1      17.954   5.705  19.401  0.00  0.00    +0.000 S 
ATOM      2  O   UNL     1      18.533  10.282  18.765  0.00  0.00    +0.000 OA
ATOM      3  N   UNL     1      17.938   8.309  19.917  0.00  0.00    +0.000 N 
ATOM      4  C   UNL     1      18.861   7.189  19.883  0.00  0.00    +0.000 C 
ATOM      5  CA  UNL     1      19.591   7.945  18.753  0.00  0.00    +0.000 C 
ATOM      6  C   UNL     1      18.648   9.129  19.110  0.00  0.00    +0.000 C 
ATOM      7  CA  UNL     1      16.778   8.316  20.630  0.00  0.00    +0.000 C 
ATOM      8  C   UNL     1      16.857   5.782  20.858  0.00  0.00    +0.000 C 
ATOM      9  C   UNL     1      16.251   7.162  21.110  0.00  0.00    +0.000 C 
ENDROOT
BRANCH   5  11
ATOM     10  O   UNL     1      21.725   8.553  16.814  0.00  0.00    +0.000 OA
ATOM     11  N   UNL     1      21.003   8.206  19.020  0.00  0.00    +0.000 N 
ATOM     12  C   UNL     1      21.917   8.482  18.017  0.00  0.00    +0.000 C 
ATOM     13  H   UNL     1      20.451   5.129  19.128  0.00  0.00    +0.000 HD
BRANCH  12  15
ATOM     14  N   UNL     1      23.491   9.201  19.730  0.00  0.00    +0.000 NA
ATOM     15  C   UNL     1      23.311   8.722  18.536  0.00  0.00    +0.000 C 
BRANCH  15  19
ATOM     16  S   UNL     1      26.338   7.200  16.442  0.00  0.00    +0.000 S 
ATOM     17  N   UNL     1      25.051   9.397  16.890  0.00  0.00    +0.000 NA
ATOM     18  N   UNL     1      26.836   9.574  15.351  0.00  0.00    +0.000 N 
ATOM     19  C   UNL     1      24.469   8.407  17.658  0.00  0.00    +0.000 A 
ATOM     20  C   UNL     1      25.028   7.152  17.548  0.00  0.00    +0.000 A 
ATOM     21  C   UNL     1      26.046   8.876  16.209  0.00  0.00    +0.000 A 
ATOM     22  H   UNL     1      26.419   6.929  21.462  0.00  0.00    +0.000 HD
ATOM     23  H   UNL     1      26.419   6.929  21.462  0.00  0.00    +0.000 HD
ENDBRANCH  15  19
BRANCH  14  24
ATOM     24  O   UNL     1      24.851   9.359  20.027  0.00  0.00    +0.000 OA
ATOM     25  C   UNL     1      25.042  10.668  20.540  0.00  0.00    +0.000 C 
ENDBRANCH  14  24
ENDBRANCH  12  15
ENDBRANCH   5  11
BRANCH   7  27
ATOM     26  OXT UNL     1      16.312  10.366  21.738  0.00  0.00    +0.000 OA
ATOM     27  C   UNL     1      16.123   9.628  20.796  0.00  0.00    +0.000 C 
BRANCH  27  28
ATOM     28  O   UNL     1      15.306   9.849  19.751  0.00  0.00    +0.000 OA
ATOM     29  H   UNL     1      16.135   6.720  18.294  0.00  0.00    +0.000 HD
ENDBRANCH  27  28
ENDBRANCH   7  27
BRANCH   9  30
ATOM     30  S   UNL     1      14.783   7.135  22.080  0.00  0.00    +0.000 S 
BRANCH  30  31
ATOM     31  C   UNL     1      14.241   5.572  21.627  0.00  0.00    +0.000 C 
ATOM     32  C   UNL     1      13.697   4.728  22.514  0.00  0.00    +0.000 C 
BRANCH  32  34
ATOM     33  N   UNL     1      11.382   1.801  22.095  0.00  0.00    +0.000 NA
ATOM     34  C   UNL     1      13.218   3.370  22.200  0.00  0.00    +0.000 A 
ATOM     35  C   UNL     1      14.089   2.394  21.729  0.00  0.00    +0.000 A 
ATOM     36  C   UNL     1      11.885   3.026  22.365  0.00  0.00    +0.000 A 
ATOM     37  C   UNL     1      13.608   1.121  21.441  0.00  0.00    +0.000 A 
ATOM     38  C   UNL     1      12.258   0.878  21.638  0.00  0.00    +0.000 A 
ENDBRANCH  32  34
ENDBRANCH  30  31
ENDBRANCH   9  30
TORSDOF 9
ENDMDL
MODEL 16
REMARK minimizedAffinity -6.59835768
REMARK minimizedRMSD -1
REMARK  Name = 53861323
REMARK  10 active torsions:
REMARK  status: ('A' for Active; 'I' for Inactive)
REMARK    1  A    between atoms: S_2  and  C_20
REMARK    2  A    between atoms: S_2  and  C_24
REMARK    3  A    between atoms: O_5  and  C_21
REMARK    4  A    between atoms: O_8  and  N_11
REMARK    5  A    between atoms: O_8  and  C_32
REMARK    6  A    between atoms: N_10  and  CA_16
REMARK    7  A    between atoms: CA_18  and  C_21
REMARK    8  A    between atoms: C_22  and  C_23
REMARK    9  A    between atoms: C_23  and  C_25
REMARK   10  A    between atoms: C_26  and  C_28
REMARK                            x       y       z     vdW  Elec       q    Type
REMARK                         _______ _______ _______ _____ _____    ______ ____
ROOT
ATOM      1  S   UNL     1      18.483   4.624  18.350  0.00  0.00    +0.000 S 
ATOM      2  O   UNL     1      20.822   7.531  15.562  0.00  0.00    +0.000 OA
ATOM      3  N   UNL     1      20.194   6.510  17.595  0.00  0.00    +0.000 N 
ATOM      4  C   UNL     1      20.080   5.063  17.631  0.00  0.00    +0.000 C 
ATOM      5  CA  UNL     1      20.149   5.113  16.090  0.00  0.00    +0.000 C 
ATOM      6  C   UNL     1      20.495   6.617  16.282  0.00  0.00    +0.000 C 
ATOM      7  CA  UNL     1      20.026   7.312  18.682  0.00  0.00    +0.000 C 
ATOM      8  C   UNL     1      18.869   5.427  19.944  0.00  0.00    +0.000 C 
ATOM      9  C   UNL     1      19.436   6.840  19.810  0.00  0.00    +0.000 C 
ENDROOT
BRANCH   5  11
ATOM     10  O   UNL     1      20.042   3.325  13.750  0.00  0.00    +0.000 OA
ATOM     11  N   UNL     1      21.231   4.321  15.511  0.00  0.00    +0.000 N 
ATOM     12  C   UNL     1      21.057   3.512  14.401  0.00  0.00    +0.000 C 
ATOM     13  H   UNL     1      20.102   2.885  18.051  0.00  0.00    +0.000 HD
BRANCH  12  15
ATOM     14  N   UNL     1      23.359   2.803  14.763  0.00  0.00    +0.000 NA
ATOM     15  C   UNL     1      22.317   2.798  13.986  0.00  0.00    +0.000 C 
BRANCH  15  19
ATOM     16  S   UNL     1      22.206   0.335  10.858  0.00  0.00    +0.000 S 
ATOM     17  N   UNL     1      22.678   2.787  11.524  0.00  0.00    +0.000 NA
ATOM     18  N   UNL     1      22.909   2.309   9.220  0.00  0.00    +0.000 N 
ATOM     19  C   UNL     1      22.347   2.099  12.674  0.00  0.00    +0.000 A 
ATOM     20  C   UNL     1      22.060   0.760  12.513  0.00  0.00    +0.000 A 
ATOM     21  C   UNL     1      22.637   1.958  10.505  0.00  0.00    +0.000 A 
ATOM     22  H   UNL     1      25.304  -0.669  14.689  0.00  0.00    +0.000 HD
ATOM     23  H   UNL     1      25.304  -0.669  14.689  0.00  0.00    +0.000 HD
ENDBRANCH  15  19
BRANCH  14  24
ATOM     24  O   UNL     1      24.429   2.094  14.201  0.00  0.00    +0.000 OA
ATOM     25  C   UNL     1      24.966   1.242  15.200  0.00  0.00    +0.000 C 
ENDBRANCH  14  24
ENDBRANCH  12  15
ENDBRANCH   5  11
BRANCH   7  27
ATOM     26  OXT UNL     1      21.598   9.092  18.782  0.00  0.00    +0.000 OA
ATOM     27  C   UNL     1      20.474   8.710  18.537  0.00  0.00    +0.000 C 
BRANCH  27  28
ATOM     28  O   UNL     1      19.447   9.460  18.097  0.00  0.00    +0.000 OA
ATOM     29  H   UNL     1      17.270   6.655  18.055  0.00  0.00    +0.000 HD
ENDBRANCH  27  28
ENDBRANCH   7  27
BRANCH   9  30
ATOM     30  S   UNL     1      19.248   7.828  21.253  0.00  0.00    +0.000 S 
BRANCH  30  31
ATOM     31  C   UNL     1      17.548   7.670  21.416  0.00  0.00    +0.000 C 
ATOM     32  C   UNL     1      16.859   8.368  22.330  0.00  0.00    +0.000 C 
BRANCH  32  34
ATOM     33  N   UNL     1      13.351   9.326  23.267  0.00  0.00    +0.000 NA
ATOM     34  C   UNL     1      15.402   8.278  22.533  0.00  0.00    +0.000 A 
ATOM     35  C   UNL     1      14.703   7.121  22.207  0.00  0.00    +0.000 A 
ATOM     36  C   UNL     1      14.685   9.343  23.056  0.00  0.00    +0.000 A 
ATOM     37  C   UNL     1      13.328   7.066  22.409  0.00  0.00    +0.000 A 
ATOM     38  C   UNL     1      12.704   8.186  22.936  0.00  0.00    +0.000 A 
ENDBRANCH  32  34
ENDBRANCH  30  31
ENDBRANCH   9  30
TORSDOF 9
ENDMDL
MODEL 17
REMARK minimizedAffinity -6.58690023
REMARK minimizedRMSD -1
REMARK  Name = 53861323
REMARK  10 active torsions:
REMARK  status: ('A' for Active; 'I' for Inactive)
REMARK    1  A    between atoms: S_2  and  C_20
REMARK    2  A    between atoms: S_2  and  C_24
REMARK    3  A    between atoms: O_5  and  C_21
REMARK    4  A    between atoms: O_8  and  N_11
REMARK    5  A    between atoms: O_8  and  C_32
REMARK    6  A    between atoms: N_10  and  CA_16
REMARK    7  A    between atoms: CA_18  and  C_21
REMARK    8  A    between atoms: C_22  and  C_23
REMARK    9  A    between atoms: C_23  and  C_25
REMARK   10  A    between atoms: C_26  and  C_28
REMARK                            x       y       z     vdW  Elec       q    Type
REMARK                         _______ _______ _______ _____ _____    ______ ____
ROOT
ATOM      1  S   UNL     1      13.718   4.614  21.361  0.00  0.00    +0.000 S 
ATOM      2  O   UNL     1      12.574   3.820  25.805  0.00  0.00    +0.000 OA
ATOM      3  N   UNL     1      13.195   5.096  23.919  0.00  0.00    +0.000 N 
ATOM      4  C   UNL     1      12.498   4.858  22.668  0.00  0.00    +0.000 C 
ATOM      5  CA  UNL     1      11.938   3.582  23.332  0.00  0.00    +0.000 C 
ATOM      6  C   UNL     1      12.569   4.139  24.639  0.00  0.00    +0.000 C 
ATOM      7  CA  UNL     1      14.142   6.060  24.090  0.00  0.00    +0.000 C 
ATOM      8  C   UNL     1      14.421   6.287  21.569  0.00  0.00    +0.000 C 
ATOM      9  C   UNL     1      14.722   6.661  23.020  0.00  0.00    +0.000 C 
ENDROOT
BRANCH   5  11
ATOM     10  O   UNL     1      10.168   1.965  21.619  0.00  0.00    +0.000 OA
ATOM     11  N   UNL     1      10.479   3.510  23.358  0.00  0.00    +0.000 N 
ATOM     12  C   UNL     1       9.753   2.706  22.495  0.00  0.00    +0.000 C 
ATOM     13  H   UNL     1      11.389   6.106  21.868  0.00  0.00    +0.000 HD
BRANCH  12  15
ATOM     14  N   UNL     1       7.603   3.835  22.307  0.00  0.00    +0.000 NA
ATOM     15  C   UNL     1       8.266   2.795  22.716  0.00  0.00    +0.000 C 
BRANCH  15  19
ATOM     16  S   UNL     1       6.361  -0.491  23.917  0.00  0.00    +0.000 S 
ATOM     17  N   UNL     1       7.393   1.716  24.782  0.00  0.00    +0.000 NA
ATOM     18  N   UNL     1       6.422   0.342  26.443  0.00  0.00    +0.000 N 
ATOM     19  C   UNL     1       7.576   1.677  23.413  0.00  0.00    +0.000 A 
ATOM     20  C   UNL     1       7.083   0.560  22.771  0.00  0.00    +0.000 A 
ATOM     21  C   UNL     1       6.763   0.626  25.157  0.00  0.00    +0.000 A 
ATOM     22  H   UNL     1       4.174   2.550  20.562  0.00  0.00    +0.000 HD
ATOM     23  H   UNL     1       4.174   2.550  20.562  0.00  0.00    +0.000 HD
ENDBRANCH  15  19
BRANCH  14  24
ATOM     24  O   UNL     1       6.239   3.734  22.609  0.00  0.00    +0.000 OA
ATOM     25  C   UNL     1       5.904   4.794  23.491  0.00  0.00    +0.000 C 
ENDBRANCH  14  24
ENDBRANCH  12  15
ENDBRANCH   5  11
BRANCH   7  27
ATOM     26  OXT UNL     1      15.445   5.837  26.064  0.00  0.00    +0.000 OA
ATOM     27  C   UNL     1      14.521   6.363  25.483  0.00  0.00    +0.000 C 
BRANCH  27  28
ATOM     28  O   UNL     1      13.685   7.295  25.976  0.00  0.00    +0.000 OA
ATOM     29  H   UNL     1      11.866   7.439  22.931  0.00  0.00    +0.000 HD
ENDBRANCH  27  28
ENDBRANCH   7  27
BRANCH   9  30
ATOM     30  S   UNL     1      15.909   7.947  23.198  0.00  0.00    +0.000 S 
BRANCH  30  31
ATOM     31  C   UNL     1      16.840   7.591  21.801  0.00  0.00    +0.000 C 
ATOM     32  C   UNL     1      17.242   8.551  20.957  0.00  0.00    +0.000 C 
BRANCH  32  34
ATOM     33  N   UNL     1      19.128   9.228  17.781  0.00  0.00    +0.000 NA
ATOM     34  C   UNL     1      18.034   8.320  19.736  0.00  0.00    +0.000 A 
ATOM     35  C   UNL     1      18.435   7.038  19.374  0.00  0.00    +0.000 A 
ATOM     36  C   UNL     1      18.403   9.372  18.912  0.00  0.00    +0.000 A 
ATOM     37  C   UNL     1      19.183   6.851  18.216  0.00  0.00    +0.000 A 
ATOM     38  C   UNL     1      19.501   7.968  17.462  0.00  0.00    +0.000 A 
ENDBRANCH  32  34
ENDBRANCH  30  31
ENDBRANCH   9  30
TORSDOF 9
ENDMDL
MODEL 18
REMARK minimizedAffinity -6.56095028
REMARK minimizedRMSD -1
REMARK  Name = 53861323
REMARK  10 active torsions:
REMARK  status: ('A' for Active; 'I' for Inactive)
REMARK    1  A    between atoms: S_2  and  C_20
REMARK    2  A    between atoms: S_2  and  C_24
REMARK    3  A    between atoms: O_5  and  C_21
REMARK    4  A    between atoms: O_8  and  N_11
REMARK    5  A    between atoms: O_8  and  C_32
REMARK    6  A    between atoms: N_10  and  CA_16
REMARK    7  A    between atoms: CA_18  and  C_21
REMARK    8  A    between atoms: C_22  and  C_23
REMARK    9  A    between atoms: C_23  and  C_25
REMARK   10  A    between atoms: C_26  and  C_28
REMARK                            x       y       z     vdW  Elec       q    Type
REMARK                         _______ _______ _______ _____ _____    ______ ____
ROOT
ATOM      1  S   UNL     1      17.965   5.864  23.131  0.00  0.00    +0.000 S 
ATOM      2  O   UNL     1      13.930   7.350  24.918  0.00  0.00    +0.000 OA
ATOM      3  N   UNL     1      15.631   7.119  23.300  0.00  0.00    +0.000 N 
ATOM      4  C   UNL     1      16.163   5.792  23.046  0.00  0.00    +0.000 C 
ATOM      5  CA  UNL     1      15.432   5.356  24.333  0.00  0.00    +0.000 C 
ATOM      6  C   UNL     1      14.781   6.767  24.290  0.00  0.00    +0.000 C 
ATOM      7  CA  UNL     1      16.007   8.232  22.611  0.00  0.00    +0.000 C 
ATOM      8  C   UNL     1      18.082   7.042  21.741  0.00  0.00    +0.000 C 
ATOM      9  C   UNL     1      17.131   8.233  21.850  0.00  0.00    +0.000 C 
ENDROOT
BRANCH   5  11
ATOM     10  O   UNL     1      13.631   4.143  26.325  0.00  0.00    +0.000 OA
ATOM     11  N   UNL     1      14.487   4.258  24.143  0.00  0.00    +0.000 N 
ATOM     12  C   UNL     1      13.688   3.772  25.164  0.00  0.00    +0.000 C 
ATOM     13  H   UNL     1      17.387   3.125  24.442  0.00  0.00    +0.000 HD
BRANCH  12  15
ATOM     14  N   UNL     1      11.563   2.582  25.145  0.00  0.00    +0.000 NA
ATOM     15  C   UNL     1      12.791   2.643  24.727  0.00  0.00    +0.000 C 
BRANCH  15  19
ATOM     16  S   UNL     1      14.529  -0.442  22.901  0.00  0.00    +0.000 S 
ATOM     17  N   UNL     1      13.122   1.680  22.455  0.00  0.00    +0.000 NA
ATOM     18  N   UNL     1      13.685   0.426  20.532  0.00  0.00    +0.000 N 
ATOM     19  C   UNL     1      13.340   1.602  23.817  0.00  0.00    +0.000 A 
ATOM     20  C   UNL     1      14.081   0.521  24.247  0.00  0.00    +0.000 A 
ATOM     21  C   UNL     1      13.703   0.656  21.872  0.00  0.00    +0.000 A 
ATOM     22  H   UNL     1      17.333   2.720  25.626  0.00  0.00    +0.000 HD
ATOM     23  H   UNL     1      17.333   2.720  25.626  0.00  0.00    +0.000 HD
ENDBRANCH  15  19
BRANCH  14  24
ATOM     24  O   UNL     1      10.896   1.460  24.635  0.00  0.00    +0.000 OA
ATOM     25  C   UNL     1       9.515   1.596  24.933  0.00  0.00    +0.000 C 
ENDBRANCH  14  24
ENDBRANCH  12  15
ENDBRANCH   5  11
BRANCH   7  27
ATOM     26  OXT UNL     1      15.469  10.391  23.448  0.00  0.00    +0.000 OA
ATOM     27  C   UNL     1      15.156   9.425  22.786  0.00  0.00    +0.000 C 
BRANCH  27  28
ATOM     28  O   UNL     1      14.010   9.255  22.102  0.00  0.00    +0.000 OA
ATOM     29  H   UNL     1      15.016   6.035  20.995  0.00  0.00    +0.000 HD
ENDBRANCH  27  28
ENDBRANCH   7  27
BRANCH   9  30
ATOM     30  S   UNL     1      17.621   9.633  20.904  0.00  0.00    +0.000 S 
BRANCH  30  31
ATOM     31  C   UNL     1      19.236   9.143  20.596  0.00  0.00    +0.000 C 
ATOM     32  C   UNL     1      19.863   9.456  19.453  0.00  0.00    +0.000 C 
BRANCH  32  34
ATOM     33  N   UNL     1      22.871   8.487  17.425  0.00  0.00    +0.000 NA
ATOM     34  C   UNL     1      21.243   9.063  19.116  0.00  0.00    +0.000 A 
ATOM     35  C   UNL     1      22.203   8.898  20.108  0.00  0.00    +0.000 A 
ATOM     36  C   UNL     1      21.625   8.847  17.801  0.00  0.00    +0.000 A 
ATOM     37  C   UNL     1      23.498   8.528  19.760  0.00  0.00    +0.000 A 
ATOM     38  C   UNL     1      23.778   8.337  18.417  0.00  0.00    +0.000 A 
ENDBRANCH  32  34
ENDBRANCH  30  31
ENDBRANCH   9  30
TORSDOF 9
ENDMDL
MODEL 19
REMARK minimizedAffinity -6.49232483
REMARK minimizedRMSD -1
REMARK  Name = 53861323
REMARK  10 active torsions:
REMARK  status: ('A' for Active; 'I' for Inactive)
REMARK    1  A    between atoms: S_2  and  C_20
REMARK    2  A    between atoms: S_2  and  C_24
REMARK    3  A    between atoms: O_5  and  C_21
REMARK    4  A    between atoms: O_8  and  N_11
REMARK    5  A    between atoms: O_8  and  C_32
REMARK    6  A    between atoms: N_10  and  CA_16
REMARK    7  A    between atoms: CA_18  and  C_21
REMARK    8  A    between atoms: C_22  and  C_23
REMARK    9  A    between atoms: C_23  and  C_25
REMARK   10  A    between atoms: C_26  and  C_28
REMARK                            x       y       z     vdW  Elec       q    Type
REMARK                         _______ _______ _______ _____ _____    ______ ____
ROOT
ATOM      1  S   UNL     1      17.229   5.807  23.181  0.00  0.00    +0.000 S 
ATOM      2  O   UNL     1      13.624   7.470  25.615  0.00  0.00    +0.000 OA
ATOM      3  N   UNL     1      14.914   7.002  23.695  0.00  0.00    +0.000 N 
ATOM      4  C   UNL     1      15.467   5.667  23.548  0.00  0.00    +0.000 C 
ATOM      5  CA  UNL     1      15.090   5.449  25.028  0.00  0.00    +0.000 C 
ATOM      6  C   UNL     1      14.347   6.809  24.907  0.00  0.00    +0.000 C 
ATOM      7  CA  UNL     1      15.037   7.982  22.759  0.00  0.00    +0.000 C 
ATOM      8  C   UNL     1      16.934   6.718  21.626  0.00  0.00    +0.000 C 
ATOM      9  C   UNL     1      15.950   7.879  21.760  0.00  0.00    +0.000 C 
ENDROOT
BRANCH   5  11
ATOM     10  O   UNL     1      15.604   3.064  26.680  0.00  0.00    +0.000 OA
ATOM     11  N   UNL     1      14.209   4.307  25.261  0.00  0.00    +0.000 N 
ATOM     12  C   UNL     1      14.565   3.237  26.064  0.00  0.00    +0.000 C 
ATOM     13  H   UNL     1      15.589   4.035  22.467  0.00  0.00    +0.000 HD
BRANCH  12  15
ATOM     14  N   UNL     1      12.993   1.660  25.077  0.00  0.00    +0.000 NA
ATOM     15  C   UNL     1      13.492   2.184  26.156  0.00  0.00    +0.000 C 
BRANCH  15  19
ATOM     16  S   UNL     1      11.769   1.638  29.706  0.00  0.00    +0.000 S 
ATOM     17  N   UNL     1      13.546   0.647  28.113  0.00  0.00    +0.000 NA
ATOM     18  N   UNL     1      13.257  -0.521  30.148  0.00  0.00    +0.000 N 
ATOM     19  C   UNL     1      13.012   1.763  27.500  0.00  0.00    +0.000 A 
ATOM     20  C   UNL     1      12.036   2.431  28.209  0.00  0.00    +0.000 A 
ATOM     21  C   UNL     1      12.967   0.485  29.281  0.00  0.00    +0.000 A 
ATOM     22  H   UNL     1      14.202   5.938  28.771  0.00  0.00    +0.000 HD
ATOM     23  H   UNL     1      14.202   5.938  28.771  0.00  0.00    +0.000 HD
ENDBRANCH  15  19
BRANCH  14  24
ATOM     24  O   UNL     1      12.007   0.709  25.368  0.00  0.00    +0.000 OA
ATOM     25  C   UNL     1      10.893   0.956  24.525  0.00  0.00    +0.000 C 
ENDBRANCH  14  24
ENDBRANCH  12  15
ENDBRANCH   5  11
BRANCH   7  27
ATOM     26  OXT UNL     1      12.982   9.172  22.675  0.00  0.00    +0.000 OA
ATOM     27  C   UNL     1      14.166   9.161  22.931  0.00  0.00    +0.000 C 
BRANCH  27  28
ATOM     28  O   UNL     1      14.897  10.185  23.406  0.00  0.00    +0.000 OA
ATOM     29  H   UNL     1      17.853   8.219  23.419  0.00  0.00    +0.000 HD
ENDBRANCH  27  28
ENDBRANCH   7  27
BRANCH   9  30
ATOM     30  S   UNL     1      16.104   9.099  20.501  0.00  0.00    +0.000 S 
BRANCH  30  31
ATOM     31  C   UNL     1      17.686   8.689  19.981  0.00  0.00    +0.000 C 
ATOM     32  C   UNL     1      18.603   9.626  19.703  0.00  0.00    +0.000 C 
BRANCH  32  34
ATOM     33  N   UNL     1      21.496   8.928  17.413  0.00  0.00    +0.000 NA
ATOM     34  C   UNL     1      19.976   9.350  19.245  0.00  0.00    +0.000 A 
ATOM     35  C   UNL     1      21.027   9.249  20.150  0.00  0.00    +0.000 A 
ATOM     36  C   UNL     1      20.261   9.182  17.899  0.00  0.00    +0.000 A 
ATOM     37  C   UNL     1      22.313   8.988  19.687  0.00  0.00    +0.000 A 
ATOM     38  C   UNL     1      22.493   8.838  18.322  0.00  0.00    +0.000 A 
ENDBRANCH  32  34
ENDBRANCH  30  31
ENDBRANCH   9  30
TORSDOF 9
ENDMDL
MODEL 20
REMARK minimizedAffinity -6.4338994
REMARK minimizedRMSD -1
REMARK  Name = 53861323
REMARK  10 active torsions:
REMARK  status: ('A' for Active; 'I' for Inactive)
REMARK    1  A    between atoms: S_2  and  C_20
REMARK    2  A    between atoms: S_2  and  C_24
REMARK    3  A    between atoms: O_5  and  C_21
REMARK    4  A    between atoms: O_8  and  N_11
REMARK    5  A    between atoms: O_8  and  C_32
REMARK    6  A    between atoms: N_10  and  CA_16
REMARK    7  A    between atoms: CA_18  and  C_21
REMARK    8  A    between atoms: C_22  and  C_23
REMARK    9  A    between atoms: C_23  and  C_25
REMARK   10  A    between atoms: C_26  and  C_28
REMARK                            x       y       z     vdW  Elec       q    Type
REMARK                         _______ _______ _______ _____ _____    ______ ____
ROOT
ATOM      1  S   UNL     1      13.240   4.239  21.827  0.00  0.00    +0.000 S 
ATOM      2  O   UNL     1      12.796   3.421  26.390  0.00  0.00    +0.000 OA
ATOM      3  N   UNL     1      12.923   4.714  24.420  0.00  0.00    +0.000 N 
ATOM      4  C   UNL     1      12.152   4.287  23.267  0.00  0.00    +0.000 C 
ATOM      5  CA  UNL     1      11.946   2.953  24.016  0.00  0.00    +0.000 C 
ATOM      6  C   UNL     1      12.593   3.681  25.228  0.00  0.00    +0.000 C 
ATOM      7  CA  UNL     1      13.664   5.856  24.458  0.00  0.00    +0.000 C 
ATOM      8  C   UNL     1      13.603   6.027  21.919  0.00  0.00    +0.000 C 
ATOM      9  C   UNL     1      13.983   6.516  23.315  0.00  0.00    +0.000 C 
ENDROOT
BRANCH   5  11
ATOM     10  O   UNL     1      10.417   0.810  22.693  0.00  0.00    +0.000 OA
ATOM     11  N   UNL     1      10.546   2.589  24.218  0.00  0.00    +0.000 N 
ATOM     12  C   UNL     1       9.934   1.553  23.531  0.00  0.00    +0.000 C 
ATOM     13  H   UNL     1      10.733   5.111  22.377  0.00  0.00    +0.000 HD
BRANCH  12  15
ATOM     14  N   UNL     1       8.019   0.171  24.124  0.00  0.00    +0.000 NA
ATOM     15  C   UNL     1       8.490   1.363  23.912  0.00  0.00    +0.000 C 
BRANCH  15  19
ATOM     16  S   UNL     1       6.231   4.620  23.514  0.00  0.00    +0.000 S 
ATOM     17  N   UNL     1       7.141   2.955  25.270  0.00  0.00    +0.000 NA
ATOM     18  N   UNL     1       5.778   4.682  26.135  0.00  0.00    +0.000 N 
ATOM     19  C   UNL     1       7.616   2.561  24.034  0.00  0.00    +0.000 A 
ATOM     20  C   UNL     1       7.230   3.340  22.963  0.00  0.00    +0.000 A 
ATOM     21  C   UNL     1       6.401   4.030  25.117  0.00  0.00    +0.000 A 
ATOM     22  H   UNL     1      11.032   4.740  22.023  0.00  0.00    +0.000 HD
ATOM     23  H   UNL     1      11.032   4.740  22.023  0.00  0.00    +0.000 HD
ENDBRANCH  15  19
BRANCH  14  24
ATOM     24  O   UNL     1       6.659   0.201  24.460  0.00  0.00    +0.000 OA
ATOM     25  C   UNL     1       6.187  -1.136  24.508  0.00  0.00    +0.000 C 
ENDBRANCH  14  24
ENDBRANCH  12  15
ENDBRANCH   5  11
BRANCH   7  27
ATOM     26  OXT UNL     1      15.168   5.927  26.297  0.00  0.00    +0.000 OA
ATOM     27  C   UNL     1      14.128   6.288  25.790  0.00  0.00    +0.000 C 
BRANCH  27  28
ATOM     28  O   UNL     1      13.222   7.127  26.323  0.00  0.00    +0.000 OA
ATOM     29  H   UNL     1      11.118   6.845  23.477  0.00  0.00    +0.000 HD
ENDBRANCH  27  28
ENDBRANCH   7  27
BRANCH   9  30
ATOM     30  S   UNL     1      14.892   8.022  23.326  0.00  0.00    +0.000 S 
BRANCH  30  31
ATOM     31  C   UNL     1      16.022   7.612  22.102  0.00  0.00    +0.000 C 
ATOM     32  C   UNL     1      17.244   7.147  22.396  0.00  0.00    +0.000 C 
BRANCH  32  34
ATOM     33  N   UNL     1      18.800   6.023  19.168  0.00  0.00    +0.000 NA
ATOM     34  C   UNL     1      18.268   6.783  21.400  0.00  0.00    +0.000 A 
ATOM     35  C   UNL     1      19.622   6.845  21.710  0.00  0.00    +0.000 A 
ATOM     36  C   UNL     1      17.912   6.369  20.126  0.00  0.00    +0.000 A 
ATOM     37  C   UNL     1      20.566   6.496  20.749  0.00  0.00    +0.000 A 
ATOM     38  C   UNL     1      20.107   6.096  19.505  0.00  0.00    +0.000 A 
ENDBRANCH  32  34
ENDBRANCH  30  31
ENDBRANCH   9  30
TORSDOF 9
ENDMDL
