MODEL 1
REMARK minimizedAffinity -8.14877796
REMARK minimizedRMSD -1
REMARK  Name = 170454597
REMARK  15 active torsions:
REMARK  status: ('A' for Active; 'I' for Inactive)
REMARK    1  A    between atoms: O_4  and  C_25
REMARK    2  A    between atoms: O_7  and  N_14
REMARK    3  A    between atoms: O_7  and  C_33
REMARK    4  A    between atoms: O_9  and  C_41
REMARK    5  A    between atoms: N_12  and  CA_19
REMARK    6  A    between atoms: N_13  and  C_24
REMARK    7  A    between atoms: N_16  and  C_40
REMARK    8  A    between atoms: CA_21  and  C_25
REMARK    9  A    between atoms: C_22  and  C_24
REMARK   10  A    between atoms: C_26  and  C_27
REMARK   11  A    between atoms: C_27  and  C_30
REMARK   12  A    between atoms: C_33  and  C_36
REMARK   13  A    between atoms: C_33  and  C_37
REMARK   14  A    between atoms: C_33  and  C_38
REMARK   15  A    between atoms: C_40  and  C_41
REMARK                            x       y       z     vdW  Elec       q    Type
REMARK                         _______ _______ _______ _____ _____    ______ ____
ROOT
ATOM      1  O   UNL     1      12.974   4.842  25.348  0.00  0.00    +0.000 OA
ATOM      2  N   UNL     1      13.175   5.959  23.292  0.00  0.00    +0.000 N 
ATOM      3  C   UNL     1      12.791   4.933  24.145  0.00  0.00    +0.000 C 
ATOM      4  H   UNL     1      14.151   5.872  21.930  0.00  0.00    +0.000 HD
ENDROOT
BRANCH   2   9
ATOM      5  S   UNL     1      16.267   5.575  23.215  0.00  0.00    +0.000 S 
ATOM      6  O   UNL     1      13.298   8.967  22.046  0.00  0.00    +0.000 OA
ATOM      7  N   UNL     1      15.376   8.006  22.611  0.00  0.00    +0.000 N 
ATOM      8  C   UNL     1      15.441   7.096  23.743  0.00  0.00    +0.000 C 
ATOM      9  CA  UNL     1      13.893   7.141  23.749  0.00  0.00    +0.000 C 
ATOM     10  C   UNL     1      14.046   8.242  22.661  0.00  0.00    +0.000 C 
ATOM     11  CA  UNL     1      16.450   8.362  21.861  0.00  0.00    +0.000 C 
ATOM     12  C   UNL     1      17.623   7.690  21.936  0.00  0.00    +0.000 C 
ATOM     13  C   UNL     1      17.817   6.432  22.777  0.00  0.00    +0.000 C 
BRANCH  11  15
ATOM     14  OXT UNL     1      15.867   9.344  19.775  0.00  0.00    +0.000 OA
ATOM     15  C   UNL     1      16.265   9.474  20.916  0.00  0.00    +0.000 C 
BRANCH  15  16
ATOM     16  O   UNL     1      16.604  10.632  21.516  0.00  0.00    +0.000 OA
ATOM     17  H   UNL     1      13.930   6.470  23.219  0.00  0.00    +0.000 HD
ENDBRANCH  15  16
ENDBRANCH  11  15
BRANCH  12  18
ATOM     18  C   UNL     1      18.883   8.077  21.199  0.00  0.00    +0.000 C 
BRANCH  18  19
ATOM     19  N   UNL     1      18.958   7.435  19.847  0.00  0.00    +0.000 N 
ATOM     20  C   UNL     1      18.531   6.171  19.708  0.00  0.00    +0.000 A 
ATOM     21  C   UNL     1      19.448   8.143  18.822  0.00  0.00    +0.000 A 
ATOM     22  C   UNL     1      18.589   5.551  18.469  0.00  0.00    +0.000 A 
ATOM     23  C   UNL     1      19.530   7.574  17.559  0.00  0.00    +0.000 A 
ATOM     24  C   UNL     1      19.095   6.263  17.385  0.00  0.00    +0.000 A 
ENDBRANCH  18  19
ENDBRANCH  12  18
ENDBRANCH   2   9
BRANCH   3  26
ATOM     25  N   UNL     1      10.770   3.820  23.371  0.00  0.00    +0.000 NA
ATOM     26  C   UNL     1      12.067   3.817  23.442  0.00  0.00    +0.000 C 
BRANCH  26  30
ATOM     27  S   UNL     1      14.030   0.507  22.411  0.00  0.00    +0.000 S 
ATOM     28  N   UNL     1      13.439   2.885  21.586  0.00  0.00    +0.000 NA
ATOM     29  N   UNL     1      14.762   1.606  20.103  0.00  0.00    +0.000 N 
ATOM     30  C   UNL     1      12.861   2.718  22.829  0.00  0.00    +0.000 A 
ATOM     31  C   UNL     1      13.071   1.496  23.433  0.00  0.00    +0.000 A 
ATOM     32  C   UNL     1      14.080   1.783  21.265  0.00  0.00    +0.000 A 
ATOM     33  H   UNL     1      12.361   3.734  26.723  0.00  0.00    +0.000 HD
ATOM     34  H   UNL     1      12.361   3.734  26.723  0.00  0.00    +0.000 HD
ENDBRANCH  26  30
BRANCH  25  35
ATOM     35  O   UNL     1      10.284   2.704  22.675  0.00  0.00    +0.000 OA
BRANCH  35  36
ATOM     36  C   UNL     1       9.173   2.187  23.391  0.00  0.00    +0.000 C 
ATOM     37  C   UNL     1       8.775   0.879  22.712  0.00  0.00    +0.000 C 
ATOM     38  C   UNL     1       9.603   1.952  24.838  0.00  0.00    +0.000 C 
BRANCH  36  41
ATOM     39  O   UNL     1       7.783   3.803  22.242  0.00  0.00    +0.000 OA
ATOM     40  N   UNL     1       7.380   3.437  24.492  0.00  0.00    +0.000 N 
ATOM     41  C   UNL     1       8.047   3.225  23.296  0.00  0.00    +0.000 C 
ATOM     42  H   UNL     1       3.892   0.391  23.112  0.00  0.00    +0.000 HD
BRANCH  40  43
ATOM     43  C   UNL     1       6.288   4.374  24.632  0.00  0.00    +0.000 C 
BRANCH  43  45
ATOM     44  O   UNL     1       4.730   3.269  26.097  0.00  0.00    +0.000 OA
ATOM     45  C   UNL     1       5.517   4.190  25.913  0.00  0.00    +0.000 C 
BRANCH  45  46
ATOM     46  O   UNL     1       5.776   5.139  26.842  0.00  0.00    +0.000 OA
ATOM     47  H   UNL     1       5.636   5.904  29.230  0.00  0.00    +0.000 HD
ENDBRANCH  45  46
ENDBRANCH  43  45
ENDBRANCH  40  43
ENDBRANCH  36  41
ENDBRANCH  35  36
ENDBRANCH  25  35
ENDBRANCH   3  26
TORSDOF 13
ENDMDL
MODEL 2
REMARK minimizedAffinity -7.99464512
REMARK minimizedRMSD -1
REMARK  Name = 170454597
REMARK  15 active torsions:
REMARK  status: ('A' for Active; 'I' for Inactive)
REMARK    1  A    between atoms: O_4  and  C_25
REMARK    2  A    between atoms: O_7  and  N_14
REMARK    3  A    between atoms: O_7  and  C_33
REMARK    4  A    between atoms: O_9  and  C_41
REMARK    5  A    between atoms: N_12  and  CA_19
REMARK    6  A    between atoms: N_13  and  C_24
REMARK    7  A    between atoms: N_16  and  C_40
REMARK    8  A    between atoms: CA_21  and  C_25
REMARK    9  A    between atoms: C_22  and  C_24
REMARK   10  A    between atoms: C_26  and  C_27
REMARK   11  A    between atoms: C_27  and  C_30
REMARK   12  A    between atoms: C_33  and  C_36
REMARK   13  A    between atoms: C_33  and  C_37
REMARK   14  A    between atoms: C_33  and  C_38
REMARK   15  A    between atoms: C_40  and  C_41
REMARK                            x       y       z     vdW  Elec       q    Type
REMARK                         _______ _______ _______ _____ _____    ______ ____
ROOT
ATOM      1  O   UNL     1      14.524   7.215  23.572  0.00  0.00    +0.000 OA
ATOM      2  N   UNL     1      15.731   7.249  21.558  0.00  0.00    +0.000 N 
ATOM      3  C   UNL     1      14.842   6.739  22.494  0.00  0.00    +0.000 C 
ATOM      4  H   UNL     1      17.114   6.532  20.934  0.00  0.00    +0.000 HD
ENDROOT
BRANCH   2   9
ATOM      5  S   UNL     1      18.821   6.891  21.350  0.00  0.00    +0.000 S 
ATOM      6  O   UNL     1      15.712   9.987  19.792  0.00  0.00    +0.000 OA
ATOM      7  N   UNL     1      17.841   9.165  20.384  0.00  0.00    +0.000 N 
ATOM      8  C   UNL     1      17.996   8.473  21.652  0.00  0.00    +0.000 C 
ATOM      9  CA  UNL     1      16.450   8.501  21.750  0.00  0.00    +0.000 C 
ATOM     10  C   UNL     1      16.512   9.393  20.476  0.00  0.00    +0.000 C 
ATOM     11  CA  UNL     1      18.858   9.393  19.514  0.00  0.00    +0.000 C 
ATOM     12  C   UNL     1      20.049   8.758  19.631  0.00  0.00    +0.000 C 
ATOM     13  C   UNL     1      20.321   7.673  20.667  0.00  0.00    +0.000 C 
BRANCH  11  15
ATOM     14  OXT UNL     1      18.314   9.965  17.271  0.00  0.00    +0.000 OA
ATOM     15  C   UNL     1      18.590  10.316  18.401  0.00  0.00    +0.000 C 
BRANCH  15  16
ATOM     16  O   UNL     1      18.702  11.587  18.837  0.00  0.00    +0.000 OA
ATOM     17  H   UNL     1      16.541   7.336  20.987  0.00  0.00    +0.000 HD
ENDBRANCH  15  16
ENDBRANCH  11  15
BRANCH  12  18
ATOM     18  C   UNL     1      21.251   9.021  18.757  0.00  0.00    +0.000 C 
BRANCH  18  19
ATOM     19  N   UNL     1      21.541   7.867  17.846  0.00  0.00    +0.000 N 
ATOM     20  C   UNL     1      20.602   7.484  16.969  0.00  0.00    +0.000 A 
ATOM     21  C   UNL     1      22.730   7.256  17.936  0.00  0.00    +0.000 A 
ATOM     22  C   UNL     1      20.842   6.419  16.114  0.00  0.00    +0.000 A 
ATOM     23  C   UNL     1      23.026   6.184  17.106  0.00  0.00    +0.000 A 
ATOM     24  C   UNL     1      22.069   5.764  16.186  0.00  0.00    +0.000 A 
ENDBRANCH  18  19
ENDBRANCH  12  18
ENDBRANCH   2   9
BRANCH   3  26
ATOM     25  N   UNL     1      12.991   5.163  22.376  0.00  0.00    +0.000 NA
ATOM     26  C   UNL     1      14.226   5.431  22.075  0.00  0.00    +0.000 C 
BRANCH  26  30
ATOM     27  S   UNL     1      16.738   2.674  20.676  0.00  0.00    +0.000 S 
ATOM     28  N   UNL     1      14.888   4.326  19.945  0.00  0.00    +0.000 NA
ATOM     29  N   UNL     1      15.825   3.032  18.204  0.00  0.00    +0.000 N 
ATOM     30  C   UNL     1      15.052   4.459  21.310  0.00  0.00    +0.000 A 
ATOM     31  C   UNL     1      16.008   3.648  21.885  0.00  0.00    +0.000 A 
ATOM     32  C   UNL     1      15.724   3.413  19.504  0.00  0.00    +0.000 A 
ATOM     33  H   UNL     1      15.941   6.617  24.627  0.00  0.00    +0.000 HD
ATOM     34  H   UNL     1      15.941   6.617  24.627  0.00  0.00    +0.000 HD
ENDBRANCH  26  30
BRANCH  25  35
ATOM     35  O   UNL     1      12.600   3.906  21.896  0.00  0.00    +0.000 OA
BRANCH  35  36
ATOM     36  C   UNL     1      12.062   3.166  22.981  0.00  0.00    +0.000 C 
ATOM     37  C   UNL     1      12.924   1.917  23.140  0.00  0.00    +0.000 C 
ATOM     38  C   UNL     1      12.121   4.043  24.233  0.00  0.00    +0.000 C 
BRANCH  36  41
ATOM     39  O   UNL     1      10.342   2.236  21.554  0.00  0.00    +0.000 OA
ATOM     40  N   UNL     1       9.687   3.165  23.571  0.00  0.00    +0.000 N 
ATOM     41  C   UNL     1      10.619   2.800  22.613  0.00  0.00    +0.000 C 
ATOM     42  H   UNL     1       9.746  -1.321  25.368  0.00  0.00    +0.000 HD
BRANCH  40  43
ATOM     43  C   UNL     1       8.270   2.919  23.429  0.00  0.00    +0.000 C 
BRANCH  43  45
ATOM     44  O   UNL     1       7.488   5.166  23.063  0.00  0.00    +0.000 OA
ATOM     45  C   UNL     1       7.558   4.008  22.670  0.00  0.00    +0.000 C 
BRANCH  45  46
ATOM     46  O   UNL     1       7.002   3.585  21.510  0.00  0.00    +0.000 OA
ATOM     47  H   UNL     1       5.988   4.147  19.283  0.00  0.00    +0.000 HD
ENDBRANCH  45  46
ENDBRANCH  43  45
ENDBRANCH  40  43
ENDBRANCH  36  41
ENDBRANCH  35  36
ENDBRANCH  25  35
ENDBRANCH   3  26
TORSDOF 13
ENDMDL
MODEL 3
REMARK minimizedAffinity -7.8784771
REMARK minimizedRMSD -1
REMARK  Name = 170454597
REMARK  15 active torsions:
REMARK  status: ('A' for Active; 'I' for Inactive)
REMARK    1  A    between atoms: O_4  and  C_25
REMARK    2  A    between atoms: O_7  and  N_14
REMARK    3  A    between atoms: O_7  and  C_33
REMARK    4  A    between atoms: O_9  and  C_41
REMARK    5  A    between atoms: N_12  and  CA_19
REMARK    6  A    between atoms: N_13  and  C_24
REMARK    7  A    between atoms: N_16  and  C_40
REMARK    8  A    between atoms: CA_21  and  C_25
REMARK    9  A    between atoms: C_22  and  C_24
REMARK   10  A    between atoms: C_26  and  C_27
REMARK   11  A    between atoms: C_27  and  C_30
REMARK   12  A    between atoms: C_33  and  C_36
REMARK   13  A    between atoms: C_33  and  C_37
REMARK   14  A    between atoms: C_33  and  C_38
REMARK   15  A    between atoms: C_40  and  C_41
REMARK                            x       y       z     vdW  Elec       q    Type
REMARK                         _______ _______ _______ _____ _____    ______ ____
ROOT
ATOM      1  O   UNL     1      13.754   3.039  26.740  0.00  0.00    +0.000 OA
ATOM      2  N   UNL     1      13.339   4.477  24.930  0.00  0.00    +0.000 N 
ATOM      3  C   UNL     1      13.094   3.409  25.782  0.00  0.00    +0.000 C 
ATOM      4  H   UNL     1      13.543   4.456  23.264  0.00  0.00    +0.000 HD
ENDROOT
BRANCH   2   9
ATOM      5  S   UNL     1      14.933   4.797  22.270  0.00  0.00    +0.000 S 
ATOM      6  O   UNL     1      13.495   7.648  25.659  0.00  0.00    +0.000 OA
ATOM      7  N   UNL     1      14.789   6.957  23.814  0.00  0.00    +0.000 N 
ATOM      8  C   UNL     1      15.363   5.622  23.822  0.00  0.00    +0.000 C 
ATOM      9  CA  UNL     1      14.491   5.356  25.074  0.00  0.00    +0.000 C 
ATOM     10  C   UNL     1      14.139   6.870  24.995  0.00  0.00    +0.000 C 
ATOM     11  CA  UNL     1      14.968   7.853  22.809  0.00  0.00    +0.000 C 
ATOM     12  C   UNL     1      15.473   7.483  21.608  0.00  0.00    +0.000 C 
ATOM     13  C   UNL     1      15.787   6.037  21.241  0.00  0.00    +0.000 C 
BRANCH  11  15
ATOM     14  OXT UNL     1      15.266  10.125  23.443  0.00  0.00    +0.000 OA
ATOM     15  C   UNL     1      14.532   9.235  23.063  0.00  0.00    +0.000 C 
BRANCH  15  16
ATOM     16  O   UNL     1      13.212   9.341  22.810  0.00  0.00    +0.000 OA
ATOM     17  H   UNL     1      17.065   6.867  20.279  0.00  0.00    +0.000 HD
ENDBRANCH  15  16
ENDBRANCH  11  15
BRANCH  12  18
ATOM     18  C   UNL     1      15.780   8.435  20.477  0.00  0.00    +0.000 C 
BRANCH  18  19
ATOM     19  N   UNL     1      17.253   8.658  20.320  0.00  0.00    +0.000 N 
ATOM     20  C   UNL     1      17.837   9.641  21.020  0.00  0.00    +0.000 A 
ATOM     21  C   UNL     1      17.941   7.866  19.486  0.00  0.00    +0.000 A 
ATOM     22  C   UNL     1      19.199   9.871  20.894  0.00  0.00    +0.000 A 
ATOM     23  C   UNL     1      19.306   8.050  19.319  0.00  0.00    +0.000 A 
ATOM     24  C   UNL     1      19.938   9.064  20.033  0.00  0.00    +0.000 A 
ENDBRANCH  18  19
ENDBRANCH  12  18
ENDBRANCH   2   9
BRANCH   3  26
ATOM     25  N   UNL     1      10.995   3.132  24.580  0.00  0.00    +0.000 NA
ATOM     26  C   UNL     1      11.847   2.643  25.430  0.00  0.00    +0.000 C 
BRANCH  26  30
ATOM     27  S   UNL     1      11.610  -1.166  26.573  0.00  0.00    +0.000 S 
ATOM     28  N   UNL     1      10.883   1.225  27.235  0.00  0.00    +0.000 NA
ATOM     29  N   UNL     1      10.172  -0.485  28.704  0.00  0.00    +0.000 N 
ATOM     30  C   UNL     1      11.613   1.318  26.066  0.00  0.00    +0.000 A 
ATOM     31  C   UNL     1      12.089   0.128  25.556  0.00  0.00    +0.000 A 
ATOM     32  C   UNL     1      10.817  -0.038  27.594  0.00  0.00    +0.000 A 
ATOM     33  H   UNL     1      12.020   2.314  22.156  0.00  0.00    +0.000 HD
ATOM     34  H   UNL     1      12.020   2.314  22.156  0.00  0.00    +0.000 HD
ENDBRANCH  26  30
BRANCH  25  35
ATOM     35  O   UNL     1       9.907   2.271  24.380  0.00  0.00    +0.000 OA
BRANCH  35  36
ATOM     36  C   UNL     1       9.351   2.552  23.105  0.00  0.00    +0.000 C 
ATOM     37  C   UNL     1      10.515   2.861  22.168  0.00  0.00    +0.000 C 
ATOM     38  C   UNL     1       8.576   1.320  22.639  0.00  0.00    +0.000 C 
BRANCH  36  41
ATOM     39  O   UNL     1       8.672   4.843  22.712  0.00  0.00    +0.000 OA
ATOM     40  N   UNL     1       7.338   3.541  24.086  0.00  0.00    +0.000 N 
ATOM     41  C   UNL     1       8.432   3.771  23.267  0.00  0.00    +0.000 C 
ATOM     42  H   UNL     1       4.581   2.716  20.204  0.00  0.00    +0.000 HD
BRANCH  40  43
ATOM     43  C   UNL     1       6.346   4.550  24.379  0.00  0.00    +0.000 C 
BRANCH  43  45
ATOM     44  O   UNL     1       5.788   5.019  26.673  0.00  0.00    +0.000 OA
ATOM     45  C   UNL     1       5.634   4.312  25.685  0.00  0.00    +0.000 C 
BRANCH  45  46
ATOM     46  O   UNL     1       4.806   3.241  25.663  0.00  0.00    +0.000 OA
ATOM     47  H   UNL     1       2.923   1.958  26.719  0.00  0.00    +0.000 HD
ENDBRANCH  45  46
ENDBRANCH  43  45
ENDBRANCH  40  43
ENDBRANCH  36  41
ENDBRANCH  35  36
ENDBRANCH  25  35
ENDBRANCH   3  26
TORSDOF 13
ENDMDL
MODEL 4
REMARK minimizedAffinity -7.86389303
REMARK minimizedRMSD -1
REMARK  Name = 170454597
REMARK  15 active torsions:
REMARK  status: ('A' for Active; 'I' for Inactive)
REMARK    1  A    between atoms: O_4  and  C_25
REMARK    2  A    between atoms: O_7  and  N_14
REMARK    3  A    between atoms: O_7  and  C_33
REMARK    4  A    between atoms: O_9  and  C_41
REMARK    5  A    between atoms: N_12  and  CA_19
REMARK    6  A    between atoms: N_13  and  C_24
REMARK    7  A    between atoms: N_16  and  C_40
REMARK    8  A    between atoms: CA_21  and  C_25
REMARK    9  A    between atoms: C_22  and  C_24
REMARK   10  A    between atoms: C_26  and  C_27
REMARK   11  A    between atoms: C_27  and  C_30
REMARK   12  A    between atoms: C_33  and  C_36
REMARK   13  A    between atoms: C_33  and  C_37
REMARK   14  A    between atoms: C_33  and  C_38
REMARK   15  A    between atoms: C_40  and  C_41
REMARK                            x       y       z     vdW  Elec       q    Type
REMARK                         _______ _______ _______ _____ _____    ______ ____
ROOT
ATOM      1  O   UNL     1      17.201   8.591  21.973  0.00  0.00    +0.000 OA
ATOM      2  N   UNL     1      19.130   7.404  21.349  0.00  0.00    +0.000 N 
ATOM      3  C   UNL     1      17.906   7.594  21.976  0.00  0.00    +0.000 C 
ATOM      4  H   UNL     1      20.602   6.989  22.040  0.00  0.00    +0.000 HD
ENDROOT
BRANCH   2   9
ATOM      5  S   UNL     1      22.011   6.597  20.475  0.00  0.00    +0.000 S 
ATOM      6  O   UNL     1      18.351   8.621  18.429  0.00  0.00    +0.000 OA
ATOM      7  N   UNL     1      20.611   8.017  18.717  0.00  0.00    +0.000 N 
ATOM      8  C   UNL     1      21.211   8.159  20.033  0.00  0.00    +0.000 C 
ATOM      9  CA  UNL     1      19.779   8.437  20.553  0.00  0.00    +0.000 C 
ATOM     10  C   UNL     1      19.368   8.425  19.053  0.00  0.00    +0.000 C 
ATOM     11  CA  UNL     1      21.280   7.573  17.621  0.00  0.00    +0.000 C 
ATOM     12  C   UNL     1      22.489   6.972  17.722  0.00  0.00    +0.000 C 
ATOM     13  C   UNL     1      23.155   6.648  19.055  0.00  0.00    +0.000 C 
BRANCH  11  15
ATOM     14  OXT UNL     1      20.647   8.727  15.641  0.00  0.00    +0.000 OA
ATOM     15  C   UNL     1      20.606   7.722  16.322  0.00  0.00    +0.000 C 
BRANCH  15  16
ATOM     16  O   UNL     1      19.951   6.582  16.026  0.00  0.00    +0.000 OA
ATOM     17  H   UNL     1      24.677   7.455  18.092  0.00  0.00    +0.000 HD
ENDBRANCH  15  16
ENDBRANCH  11  15
BRANCH  12  18
ATOM     18  C   UNL     1      23.329   6.531  16.548  0.00  0.00    +0.000 C 
BRANCH  18  19
ATOM     19  N   UNL     1      24.498   7.442  16.326  0.00  0.00    +0.000 N 
ATOM     20  C   UNL     1      24.268   8.718  15.984  0.00  0.00    +0.000 A 
ATOM     21  C   UNL     1      25.736   6.952  16.477  0.00  0.00    +0.000 A 
ATOM     22  C   UNL     1      25.331   9.583  15.772  0.00  0.00    +0.000 A 
ATOM     23  C   UNL     1      26.838   7.771  16.277  0.00  0.00    +0.000 A 
ATOM     24  C   UNL     1      26.629   9.101  15.921  0.00  0.00    +0.000 A 
ENDBRANCH  18  19
ENDBRANCH  12  18
ENDBRANCH   2   9
BRANCH   3  26
ATOM     25  N   UNL     1      16.507   6.502  23.642  0.00  0.00    +0.000 NA
ATOM     26  C   UNL     1      17.440   6.387  22.745  0.00  0.00    +0.000 C 
BRANCH  26  30
ATOM     27  S   UNL     1      19.555   3.020  22.513  0.00  0.00    +0.000 S 
ATOM     28  N   UNL     1      17.556   4.265  21.448  0.00  0.00    +0.000 NA
ATOM     29  N   UNL     1      18.040   2.151  20.508  0.00  0.00    +0.000 N 
ATOM     30  C   UNL     1      18.059   5.066  22.454  0.00  0.00    +0.000 A 
ATOM     31  C   UNL     1      19.142   4.560  23.143  0.00  0.00    +0.000 A 
ATOM     32  C   UNL     1      18.267   3.161  21.389  0.00  0.00    +0.000 A 
ATOM     33  H   UNL     1      19.728   8.503  23.813  0.00  0.00    +0.000 HD
ATOM     34  H   UNL     1      19.728   8.503  23.813  0.00  0.00    +0.000 HD
ENDBRANCH  26  30
BRANCH  25  35
ATOM     35  O   UNL     1      16.208   5.271  24.242  0.00  0.00    +0.000 OA
BRANCH  35  36
ATOM     36  C   UNL     1      14.839   5.282  24.613  0.00  0.00    +0.000 C 
ATOM     37  C   UNL     1      14.483   3.863  25.049  0.00  0.00    +0.000 C 
ATOM     38  C   UNL     1      14.662   6.275  25.761  0.00  0.00    +0.000 C 
BRANCH  36  41
ATOM     39  O   UNL     1      14.048   5.036  22.338  0.00  0.00    +0.000 OA
ATOM     40  N   UNL     1      13.315   6.871  23.544  0.00  0.00    +0.000 N 
ATOM     41  C   UNL     1      14.035   5.699  23.375  0.00  0.00    +0.000 C 
ATOM     42  H   UNL     1       9.339   4.311  24.540  0.00  0.00    +0.000 HD
BRANCH  40  43
ATOM     43  C   UNL     1      12.491   7.448  22.506  0.00  0.00    +0.000 C 
BRANCH  43  45
ATOM     44  O   UNL     1      12.420   9.512  21.270  0.00  0.00    +0.000 OA
ATOM     45  C   UNL     1      12.774   8.909  22.276  0.00  0.00    +0.000 C 
BRANCH  45  46
ATOM     46  O   UNL     1      13.459   9.495  23.287  0.00  0.00    +0.000 OA
ATOM     47  H   UNL     1      14.232  11.595  24.426  0.00  0.00    +0.000 HD
ENDBRANCH  45  46
ENDBRANCH  43  45
ENDBRANCH  40  43
ENDBRANCH  36  41
ENDBRANCH  35  36
ENDBRANCH  25  35
ENDBRANCH   3  26
TORSDOF 13
ENDMDL
MODEL 5
REMARK minimizedAffinity -7.66440916
REMARK minimizedRMSD -1
REMARK  Name = 170454597
REMARK  15 active torsions:
REMARK  status: ('A' for Active; 'I' for Inactive)
REMARK    1  A    between atoms: O_4  and  C_25
REMARK    2  A    between atoms: O_7  and  N_14
REMARK    3  A    between atoms: O_7  and  C_33
REMARK    4  A    between atoms: O_9  and  C_41
REMARK    5  A    between atoms: N_12  and  CA_19
REMARK    6  A    between atoms: N_13  and  C_24
REMARK    7  A    between atoms: N_16  and  C_40
REMARK    8  A    between atoms: CA_21  and  C_25
REMARK    9  A    between atoms: C_22  and  C_24
REMARK   10  A    between atoms: C_26  and  C_27
REMARK   11  A    between atoms: C_27  and  C_30
REMARK   12  A    between atoms: C_33  and  C_36
REMARK   13  A    between atoms: C_33  and  C_37
REMARK   14  A    between atoms: C_33  and  C_38
REMARK   15  A    between atoms: C_40  and  C_41
REMARK                            x       y       z     vdW  Elec       q    Type
REMARK                         _______ _______ _______ _____ _____    ______ ____
ROOT
ATOM      1  O   UNL     1      18.991   6.594  16.710  0.00  0.00    +0.000 OA
ATOM      2  N   UNL     1      20.681   6.441  18.334  0.00  0.00    +0.000 N 
ATOM      3  C   UNL     1      19.390   6.637  17.863  0.00  0.00    +0.000 C 
ATOM      4  H   UNL     1      21.637   7.494  19.224  0.00  0.00    +0.000 HD
ENDROOT
BRANCH   2   9
ATOM      5  S   UNL     1      22.704   8.804  18.133  0.00  0.00    +0.000 S 
ATOM      6  O   UNL     1      23.013   4.181  18.598  0.00  0.00    +0.000 OA
ATOM      7  N   UNL     1      23.752   6.361  18.090  0.00  0.00    +0.000 N 
ATOM      8  C   UNL     1      22.900   7.219  17.283  0.00  0.00    +0.000 C 
ATOM      9  CA  UNL     1      21.804   6.138  17.458  0.00  0.00    +0.000 C 
ATOM     10  C   UNL     1      22.922   5.296  18.139  0.00  0.00    +0.000 C 
ATOM     11  CA  UNL     1      24.972   6.729  18.559  0.00  0.00    +0.000 C 
ATOM     12  C   UNL     1      25.380   8.020  18.541  0.00  0.00    +0.000 C 
ATOM     13  C   UNL     1      24.489   9.175  18.097  0.00  0.00    +0.000 C 
BRANCH  11  15
ATOM     14  OXT UNL     1      25.831   5.389  20.325  0.00  0.00    +0.000 OA
ATOM     15  C   UNL     1      25.809   5.670  19.143  0.00  0.00    +0.000 C 
BRANCH  15  16
ATOM     16  O   UNL     1      26.530   5.081  18.169  0.00  0.00    +0.000 OA
ATOM     17  H   UNL     1      21.548   6.666  18.353  0.00  0.00    +0.000 HD
ENDBRANCH  15  16
ENDBRANCH  11  15
BRANCH  12  18
ATOM     18  C   UNL     1      26.750   8.493  18.964  0.00  0.00    +0.000 C 
BRANCH  18  19
ATOM     19  N   UNL     1      26.698   9.293  20.230  0.00  0.00    +0.000 N 
ATOM     20  C   UNL     1      27.258  10.511  20.249  0.00  0.00    +0.000 A 
ATOM     21  C   UNL     1      26.092   8.766  21.302  0.00  0.00    +0.000 A 
ATOM     22  C   UNL     1      27.224  11.274  21.407  0.00  0.00    +0.000 A 
ATOM     23  C   UNL     1      26.028   9.483  22.488  0.00  0.00    +0.000 A 
ATOM     24  C   UNL     1      26.602  10.750  22.537  0.00  0.00    +0.000 A 
ENDBRANCH  18  19
ENDBRANCH  12  18
ENDBRANCH   2   9
BRANCH   3  26
ATOM     25  N   UNL     1      17.857   8.119  19.036  0.00  0.00    +0.000 NA
ATOM     26  C   UNL     1      18.400   6.942  18.955  0.00  0.00    +0.000 C 
BRANCH  26  30
ATOM     27  S   UNL     1      17.029   3.833  21.034  0.00  0.00    +0.000 S 
ATOM     28  N   UNL     1      18.633   5.855  21.182  0.00  0.00    +0.000 NA
ATOM     29  N   UNL     1      18.534   4.507  23.121  0.00  0.00    +0.000 N 
ATOM     30  C   UNL     1      18.052   5.873  19.930  0.00  0.00    +0.000 A 
ATOM     31  C   UNL     1      17.156   4.858  19.666  0.00  0.00    +0.000 A 
ATOM     32  C   UNL     1      18.168   4.824  21.851  0.00  0.00    +0.000 A 
ATOM     33  H   UNL     1      15.807   7.617  17.037  0.00  0.00    +0.000 HD
ATOM     34  H   UNL     1      15.807   7.617  17.037  0.00  0.00    +0.000 HD
ENDBRANCH  26  30
BRANCH  25  35
ATOM     35  O   UNL     1      16.961   8.206  20.111  0.00  0.00    +0.000 OA
BRANCH  35  36
ATOM     36  C   UNL     1      16.994   9.534  20.608  0.00  0.00    +0.000 C 
ATOM     37  C   UNL     1      18.419   9.796  21.086  0.00  0.00    +0.000 C 
ATOM     38  C   UNL     1      16.608  10.480  19.471  0.00  0.00    +0.000 C 
BRANCH  36  41
ATOM     39  O   UNL     1      15.897  10.614  22.477  0.00  0.00    +0.000 OA
ATOM     40  N   UNL     1      15.243   8.459  21.938  0.00  0.00    +0.000 N 
ATOM     41  C   UNL     1      15.996   9.610  21.771  0.00  0.00    +0.000 C 
ATOM     42  H   UNL     1      11.606  10.455  19.459  0.00  0.00    +0.000 HD
BRANCH  40  43
ATOM     43  C   UNL     1      14.246   8.312  22.974  0.00  0.00    +0.000 C 
BRANCH  43  45
ATOM     44  O   UNL     1      12.428   9.808  22.477  0.00  0.00    +0.000 OA
ATOM     45  C   UNL     1      12.857   8.662  22.506  0.00  0.00    +0.000 C 
BRANCH  45  46
ATOM     46  O   UNL     1      12.129   7.588  22.121  0.00  0.00    +0.000 OA
ATOM     47  H   UNL     1      10.122   6.670  20.922  0.00  0.00    +0.000 HD
ENDBRANCH  45  46
ENDBRANCH  43  45
ENDBRANCH  40  43
ENDBRANCH  36  41
ENDBRANCH  35  36
ENDBRANCH  25  35
ENDBRANCH   3  26
TORSDOF 13
ENDMDL
MODEL 6
REMARK minimizedAffinity -7.60409451
REMARK minimizedRMSD -1
REMARK  Name = 170454597
REMARK  15 active torsions:
REMARK  status: ('A' for Active; 'I' for Inactive)
REMARK    1  A    between atoms: O_4  and  C_25
REMARK    2  A    between atoms: O_7  and  N_14
REMARK    3  A    between atoms: O_7  and  C_33
REMARK    4  A    between atoms: O_9  and  C_41
REMARK    5  A    between atoms: N_12  and  CA_19
REMARK    6  A    between atoms: N_13  and  C_24
REMARK    7  A    between atoms: N_16  and  C_40
REMARK    8  A    between atoms: CA_21  and  C_25
REMARK    9  A    between atoms: C_22  and  C_24
REMARK   10  A    between atoms: C_26  and  C_27
REMARK   11  A    between atoms: C_27  and  C_30
REMARK   12  A    between atoms: C_33  and  C_36
REMARK   13  A    between atoms: C_33  and  C_37
REMARK   14  A    between atoms: C_33  and  C_38
REMARK   15  A    between atoms: C_40  and  C_41
REMARK                            x       y       z     vdW  Elec       q    Type
REMARK                         _______ _______ _______ _____ _____    ______ ____
ROOT
ATOM      1  O   UNL     1      16.940   9.701  20.803  0.00  0.00    +0.000 OA
ATOM      2  N   UNL     1      19.033   8.636  20.864  0.00  0.00    +0.000 N 
ATOM      3  C   UNL     1      17.696   8.823  21.187  0.00  0.00    +0.000 C 
ATOM      4  H   UNL     1      20.355   8.571  21.894  0.00  0.00    +0.000 HD
ENDROOT
BRANCH   2   9
ATOM      5  S   UNL     1      21.930   7.636  20.294  0.00  0.00    +0.000 S 
ATOM      6  O   UNL     1      18.458   9.420  17.754  0.00  0.00    +0.000 OA
ATOM      7  N   UNL     1      20.678   8.810  18.263  0.00  0.00    +0.000 N 
ATOM      8  C   UNL     1      21.208   9.133  19.577  0.00  0.00    +0.000 C 
ATOM      9  CA  UNL     1      19.759   9.521  19.964  0.00  0.00    +0.000 C 
ATOM     10  C   UNL     1      19.432   9.295  18.460  0.00  0.00    +0.000 C 
ATOM     11  CA  UNL     1      21.392   8.192  17.288  0.00  0.00    +0.000 C 
ATOM     12  C   UNL     1      22.573   7.582  17.549  0.00  0.00    +0.000 C 
ATOM     13  C   UNL     1      23.152   7.445  18.953  0.00  0.00    +0.000 C 
BRANCH  11  15
ATOM     14  OXT UNL     1      20.797   9.100  15.172  0.00  0.00    +0.000 OA
ATOM     15  C   UNL     1      20.796   8.161  15.943  0.00  0.00    +0.000 C 
BRANCH  15  16
ATOM     16  O   UNL     1      20.262   6.944  15.718  0.00  0.00    +0.000 OA
ATOM     17  H   UNL     1      24.746   8.427  17.968  0.00  0.00    +0.000 HD
ENDBRANCH  15  16
ENDBRANCH  11  15
BRANCH  12  18
ATOM     18  C   UNL     1      23.461   6.950  16.506  0.00  0.00    +0.000 C 
BRANCH  18  19
ATOM     19  N   UNL     1      24.689   7.770  16.249  0.00  0.00    +0.000 N 
ATOM     20  C   UNL     1      24.547   9.016  15.774  0.00  0.00    +0.000 A 
ATOM     21  C   UNL     1      25.890   7.232  16.503  0.00  0.00    +0.000 A 
ATOM     22  C   UNL     1      25.666   9.797  15.526  0.00  0.00    +0.000 A 
ATOM     23  C   UNL     1      27.044   7.967  16.274  0.00  0.00    +0.000 A 
ATOM     24  C   UNL     1      26.927   9.263  15.780  0.00  0.00    +0.000 A 
ENDBRANCH  18  19
ENDBRANCH  12  18
ENDBRANCH   2   9
BRANCH   3  26
ATOM     25  N   UNL     1      17.964   6.900  22.656  0.00  0.00    +0.000 NA
ATOM     26  C   UNL     1      17.165   7.784  22.139  0.00  0.00    +0.000 C 
BRANCH  26  30
ATOM     27  S   UNL     1      13.448   8.413  23.427  0.00  0.00    +0.000 S 
ATOM     28  N   UNL     1      14.880   6.807  21.995  0.00  0.00    +0.000 NA
ATOM     29  N   UNL     1      12.587   6.251  22.139  0.00  0.00    +0.000 N 
ATOM     30  C   UNL     1      15.717   7.793  22.479  0.00  0.00    +0.000 A 
ATOM     31  C   UNL     1      15.122   8.751  23.273  0.00  0.00    +0.000 A 
ATOM     32  C   UNL     1      13.661   7.032  22.430  0.00  0.00    +0.000 A 
ATOM     33  H   UNL     1      18.921   9.052  24.622  0.00  0.00    +0.000 HD
ATOM     34  H   UNL     1      18.921   9.052  24.622  0.00  0.00    +0.000 HD
ENDBRANCH  26  30
BRANCH  25  35
ATOM     35  O   UNL     1      17.287   6.027  23.519  0.00  0.00    +0.000 OA
BRANCH  35  36
ATOM     36  C   UNL     1      18.016   4.812  23.579  0.00  0.00    +0.000 C 
ATOM     37  C   UNL     1      19.287   5.013  22.759  0.00  0.00    +0.000 C 
ATOM     38  C   UNL     1      18.341   4.521  25.044  0.00  0.00    +0.000 C 
BRANCH  36  41
ATOM     39  O   UNL     1      16.631   2.827  23.655  0.00  0.00    +0.000 OA
ATOM     40  N   UNL     1      16.958   3.838  21.598  0.00  0.00    +0.000 N 
ATOM     41  C   UNL     1      17.129   3.718  22.968  0.00  0.00    +0.000 C 
ATOM     42  H   UNL     1      12.724   6.058  22.301  0.00  0.00    +0.000 HD
BRANCH  40  43
ATOM     43  C   UNL     1      16.164   2.916  20.818  0.00  0.00    +0.000 C 
BRANCH  43  45
ATOM     44  O   UNL     1      14.930   4.570  19.578  0.00  0.00    +0.000 OA
ATOM     45  C   UNL     1      15.595   3.541  19.571  0.00  0.00    +0.000 C 
BRANCH  45  46
ATOM     46  O   UNL     1      15.887   2.856  18.440  0.00  0.00    +0.000 OA
ATOM     47  H   UNL     1      16.001   2.798  15.932  0.00  0.00    +0.000 HD
ENDBRANCH  45  46
ENDBRANCH  43  45
ENDBRANCH  40  43
ENDBRANCH  36  41
ENDBRANCH  35  36
ENDBRANCH  25  35
ENDBRANCH   3  26
TORSDOF 13
ENDMDL
MODEL 7
REMARK minimizedAffinity -7.60218573
REMARK minimizedRMSD -1
REMARK  Name = 170454597
REMARK  15 active torsions:
REMARK  status: ('A' for Active; 'I' for Inactive)
REMARK    1  A    between atoms: O_4  and  C_25
REMARK    2  A    between atoms: O_7  and  N_14
REMARK    3  A    between atoms: O_7  and  C_33
REMARK    4  A    between atoms: O_9  and  C_41
REMARK    5  A    between atoms: N_12  and  CA_19
REMARK    6  A    between atoms: N_13  and  C_24
REMARK    7  A    between atoms: N_16  and  C_40
REMARK    8  A    between atoms: CA_21  and  C_25
REMARK    9  A    between atoms: C_22  and  C_24
REMARK   10  A    between atoms: C_26  and  C_27
REMARK   11  A    between atoms: C_27  and  C_30
REMARK   12  A    between atoms: C_33  and  C_36
REMARK   13  A    between atoms: C_33  and  C_37
REMARK   14  A    between atoms: C_33  and  C_38
REMARK   15  A    between atoms: C_40  and  C_41
REMARK                            x       y       z     vdW  Elec       q    Type
REMARK                         _______ _______ _______ _____ _____    ______ ____
ROOT
ATOM      1  O   UNL     1      16.927  10.115  21.201  0.00  0.00    +0.000 OA
ATOM      2  N   UNL     1      18.720   8.651  20.803  0.00  0.00    +0.000 N 
ATOM      3  C   UNL     1      17.500   9.045  21.334  0.00  0.00    +0.000 C 
ATOM      4  H   UNL     1      20.092   8.129  21.617  0.00  0.00    +0.000 HD
ENDROOT
BRANCH   2   9
ATOM      5  S   UNL     1      21.588   7.518  20.347  0.00  0.00    +0.000 S 
ATOM      6  O   UNL     1      18.337   9.532  17.690  0.00  0.00    +0.000 OA
ATOM      7  N   UNL     1      20.496   8.799  18.289  0.00  0.00    +0.000 N 
ATOM      8  C   UNL     1      20.978   9.065  19.634  0.00  0.00    +0.000 C 
ATOM      9  CA  UNL     1      19.533   9.518  19.961  0.00  0.00    +0.000 C 
ATOM     10  C   UNL     1      19.268   9.342  18.438  0.00  0.00    +0.000 C 
ATOM     11  CA  UNL     1      21.225   8.166  17.334  0.00  0.00    +0.000 C 
ATOM     12  C   UNL     1      22.360   7.492  17.636  0.00  0.00    +0.000 C 
ATOM     13  C   UNL     1      22.863   7.295  19.062  0.00  0.00    +0.000 C 
BRANCH  11  15
ATOM     14  OXT UNL     1      20.769   9.154  15.219  0.00  0.00    +0.000 OA
ATOM     15  C   UNL     1      20.695   8.195  15.962  0.00  0.00    +0.000 C 
BRANCH  15  16
ATOM     16  O   UNL     1      20.127   7.007  15.677  0.00  0.00    +0.000 OA
ATOM     17  H   UNL     1      24.550   8.250  18.178  0.00  0.00    +0.000 HD
ENDBRANCH  15  16
ENDBRANCH  11  15
BRANCH  12  18
ATOM     18  C   UNL     1      23.266   6.839  16.620  0.00  0.00    +0.000 C 
BRANCH  18  19
ATOM     19  N   UNL     1      24.504   7.648  16.375  0.00  0.00    +0.000 N 
ATOM     20  C   UNL     1      25.699   7.094  16.624  0.00  0.00    +0.000 A 
ATOM     21  C   UNL     1      24.376   8.899  15.914  0.00  0.00    +0.000 A 
ATOM     22  C   UNL     1      26.861   7.819  16.407  0.00  0.00    +0.000 A 
ATOM     23  C   UNL     1      25.504   9.673  15.678  0.00  0.00    +0.000 A 
ATOM     24  C   UNL     1      26.758   9.123  15.928  0.00  0.00    +0.000 A 
ENDBRANCH  18  19
ENDBRANCH  12  18
ENDBRANCH   2   9
BRANCH   3  26
ATOM     25  N   UNL     1      15.903   8.294  23.011  0.00  0.00    +0.000 NA
ATOM     26  C   UNL     1      16.848   7.982  22.176  0.00  0.00    +0.000 C 
BRANCH  26  30
ATOM     27  S   UNL     1      18.441   4.337  22.395  0.00  0.00    +0.000 S 
ATOM     28  N   UNL     1      16.850   5.800  20.977  0.00  0.00    +0.000 NA
ATOM     29  N   UNL     1      17.155   3.592  20.189  0.00  0.00    +0.000 N 
ATOM     30  C   UNL     1      17.300   6.571  22.030  0.00  0.00    +0.000 A 
ATOM     31  C   UNL     1      18.169   5.951  22.904  0.00  0.00    +0.000 A 
ATOM     32  C   UNL     1      17.386   4.604  21.067  0.00  0.00    +0.000 A 
ATOM     33  H   UNL     1      19.227   9.799  23.553  0.00  0.00    +0.000 HD
ATOM     34  H   UNL     1      19.227   9.799  23.553  0.00  0.00    +0.000 HD
ENDBRANCH  26  30
BRANCH  25  35
ATOM     35  O   UNL     1      15.420   7.170  23.696  0.00  0.00    +0.000 OA
BRANCH  35  36
ATOM     36  C   UNL     1      14.010   7.286  23.795  0.00  0.00    +0.000 C 
ATOM     37  C   UNL     1      13.631   6.912  25.225  0.00  0.00    +0.000 C 
ATOM     38  C   UNL     1      13.624   8.731  23.479  0.00  0.00    +0.000 C 
BRANCH  36  41
ATOM     39  O   UNL     1      12.521   6.646  21.995  0.00  0.00    +0.000 OA
ATOM     40  N   UNL     1      13.930   5.025  22.861  0.00  0.00    +0.000 N 
ATOM     41  C   UNL     1      13.400   6.303  22.786  0.00  0.00    +0.000 C 
ATOM     42  H   UNL     1      16.917   6.025  19.196  0.00  0.00    +0.000 HD
BRANCH  40  43
ATOM     43  C   UNL     1      13.500   3.941  22.006  0.00  0.00    +0.000 C 
BRANCH  43  45
ATOM     44  O   UNL     1      15.123   2.522  23.075  0.00  0.00    +0.000 OA
ATOM     45  C   UNL     1      14.366   2.715  22.132  0.00  0.00    +0.000 C 
BRANCH  45  46
ATOM     46  O   UNL     1      14.229   1.847  21.103  0.00  0.00    +0.000 OA
ATOM     47  H   UNL     1      14.602  -0.454  20.168  0.00  0.00    +0.000 HD
ENDBRANCH  45  46
ENDBRANCH  43  45
ENDBRANCH  40  43
ENDBRANCH  36  41
ENDBRANCH  35  36
ENDBRANCH  25  35
ENDBRANCH   3  26
TORSDOF 13
ENDMDL
MODEL 8
REMARK minimizedAffinity -7.51974392
REMARK minimizedRMSD -1
REMARK  Name = 170454597
REMARK  15 active torsions:
REMARK  status: ('A' for Active; 'I' for Inactive)
REMARK    1  A    between atoms: O_4  and  C_25
REMARK    2  A    between atoms: O_7  and  N_14
REMARK    3  A    between atoms: O_7  and  C_33
REMARK    4  A    between atoms: O_9  and  C_41
REMARK    5  A    between atoms: N_12  and  CA_19
REMARK    6  A    between atoms: N_13  and  C_24
REMARK    7  A    between atoms: N_16  and  C_40
REMARK    8  A    between atoms: CA_21  and  C_25
REMARK    9  A    between atoms: C_22  and  C_24
REMARK   10  A    between atoms: C_26  and  C_27
REMARK   11  A    between atoms: C_27  and  C_30
REMARK   12  A    between atoms: C_33  and  C_36
REMARK   13  A    between atoms: C_33  and  C_37
REMARK   14  A    between atoms: C_33  and  C_38
REMARK   15  A    between atoms: C_40  and  C_41
REMARK                            x       y       z     vdW  Elec       q    Type
REMARK                         _______ _______ _______ _____ _____    ______ ____
ROOT
ATOM      1  O   UNL     1      17.129   8.336  21.399  0.00  0.00    +0.000 OA
ATOM      2  N   UNL     1      19.321   7.520  21.183  0.00  0.00    +0.000 N 
ATOM      3  C   UNL     1      18.012   7.529  21.645  0.00  0.00    +0.000 C 
ATOM      4  H   UNL     1      20.741   7.546  22.076  0.00  0.00    +0.000 HD
ENDROOT
BRANCH   2   9
ATOM      5  S   UNL     1      22.278   6.965  20.366  0.00  0.00    +0.000 S 
ATOM      6  O   UNL     1      18.415   8.350  18.166  0.00  0.00    +0.000 OA
ATOM      7  N   UNL     1      20.729   8.038  18.491  0.00  0.00    +0.000 N 
ATOM      8  C   UNL     1      21.306   8.375  19.782  0.00  0.00    +0.000 C 
ATOM      9  CA  UNL     1      19.850   8.537  20.285  0.00  0.00    +0.000 C 
ATOM     10  C   UNL     1      19.446   8.333  18.797  0.00  0.00    +0.000 C 
ATOM     11  CA  UNL     1      21.447   7.569  17.438  0.00  0.00    +0.000 C 
ATOM     12  C   UNL     1      22.716   7.122  17.586  0.00  0.00    +0.000 C 
ATOM     13  C   UNL     1      23.412   7.007  18.939  0.00  0.00    +0.000 C 
BRANCH  11  15
ATOM     14  OXT UNL     1      20.225   6.520  15.689  0.00  0.00    +0.000 OA
ATOM     15  C   UNL     1      20.763   7.513  16.137  0.00  0.00    +0.000 C 
BRANCH  15  16
ATOM     16  O   UNL     1      20.834   8.720  15.541  0.00  0.00    +0.000 OA
ATOM     17  H   UNL     1      19.914   7.321  20.498  0.00  0.00    +0.000 HD
ENDBRANCH  15  16
ENDBRANCH  11  15
BRANCH  12  18
ATOM     18  C   UNL     1      23.604   6.668  16.453  0.00  0.00    +0.000 C 
BRANCH  18  19
ATOM     19  N   UNL     1      24.736   7.620  16.216  0.00  0.00    +0.000 N 
ATOM     20  C   UNL     1      24.460   8.859  15.783  0.00  0.00    +0.000 A 
ATOM     21  C   UNL     1      25.989   7.203  16.444  0.00  0.00    +0.000 A 
ATOM     22  C   UNL     1      25.488   9.761  15.555  0.00  0.00    +0.000 A 
ATOM     23  C   UNL     1      27.058   8.062  16.233  0.00  0.00    +0.000 A 
ATOM     24  C   UNL     1      26.800   9.354  15.784  0.00  0.00    +0.000 A 
ENDBRANCH  18  19
ENDBRANCH  12  18
ENDBRANCH   2   9
BRANCH   3  26
ATOM     25  N   UNL     1      16.750   6.485  23.446  0.00  0.00    +0.000 NA
ATOM     26  C   UNL     1      17.699   6.380  22.565  0.00  0.00    +0.000 C 
BRANCH  26  30
ATOM     27  S   UNL     1      19.383   2.885  21.660  0.00  0.00    +0.000 S 
ATOM     28  N   UNL     1      19.505   4.850  23.336  0.00  0.00    +0.000 NA
ATOM     29  N   UNL     1      21.078   3.123  23.696  0.00  0.00    +0.000 N 
ATOM     30  C   UNL     1      18.489   5.125  22.442  0.00  0.00    +0.000 A 
ATOM     31  C   UNL     1      18.274   4.177  21.463  0.00  0.00    +0.000 A 
ATOM     32  C   UNL     1      20.046   3.695  23.021  0.00  0.00    +0.000 A 
ATOM     33  H   UNL     1      14.609   5.881  21.537  0.00  0.00    +0.000 HD
ATOM     34  H   UNL     1      14.609   5.881  21.537  0.00  0.00    +0.000 HD
ENDBRANCH  26  30
BRANCH  25  35
ATOM     35  O   UNL     1      16.607   5.312  24.200  0.00  0.00    +0.000 OA
BRANCH  35  36
ATOM     36  C   UNL     1      15.228   4.985  24.252  0.00  0.00    +0.000 C 
ATOM     37  C   UNL     1      14.831   4.506  22.858  0.00  0.00    +0.000 C 
ATOM     38  C   UNL     1      15.036   3.883  25.293  0.00  0.00    +0.000 C 
BRANCH  36  41
ATOM     39  O   UNL     1      14.618   6.802  25.731  0.00  0.00    +0.000 OA
ATOM     40  N   UNL     1      13.625   6.730  23.641  0.00  0.00    +0.000 N 
ATOM     41  C   UNL     1      14.470   6.264  24.634  0.00  0.00    +0.000 C 
ATOM     42  H   UNL     1      17.009   9.866  22.203  0.00  0.00    +0.000 HD
BRANCH  40  43
ATOM     43  C   UNL     1      12.813   7.918  23.788  0.00  0.00    +0.000 C 
BRANCH  43  45
ATOM     44  O   UNL     1      14.560   9.453  23.170  0.00  0.00    +0.000 OA
ATOM     45  C   UNL     1      13.388   9.113  23.075  0.00  0.00    +0.000 C 
BRANCH  45  46
ATOM     46  O   UNL     1      12.484   9.778  22.317  0.00  0.00    +0.000 OA
ATOM     47  H   UNL     1      12.014  11.453  20.506  0.00  0.00    +0.000 HD
ENDBRANCH  45  46
ENDBRANCH  43  45
ENDBRANCH  40  43
ENDBRANCH  36  41
ENDBRANCH  35  36
ENDBRANCH  25  35
ENDBRANCH   3  26
TORSDOF 13
ENDMDL
MODEL 9
REMARK minimizedAffinity -7.46344995
REMARK minimizedRMSD -1
REMARK  Name = 170454597
REMARK  15 active torsions:
REMARK  status: ('A' for Active; 'I' for Inactive)
REMARK    1  A    between atoms: O_4  and  C_25
REMARK    2  A    between atoms: O_7  and  N_14
REMARK    3  A    between atoms: O_7  and  C_33
REMARK    4  A    between atoms: O_9  and  C_41
REMARK    5  A    between atoms: N_12  and  CA_19
REMARK    6  A    between atoms: N_13  and  C_24
REMARK    7  A    between atoms: N_16  and  C_40
REMARK    8  A    between atoms: CA_21  and  C_25
REMARK    9  A    between atoms: C_22  and  C_24
REMARK   10  A    between atoms: C_26  and  C_27
REMARK   11  A    between atoms: C_27  and  C_30
REMARK   12  A    between atoms: C_33  and  C_36
REMARK   13  A    between atoms: C_33  and  C_37
REMARK   14  A    between atoms: C_33  and  C_38
REMARK   15  A    between atoms: C_40  and  C_41
REMARK                            x       y       z     vdW  Elec       q    Type
REMARK                         _______ _______ _______ _____ _____    ______ ____
ROOT
ATOM      1  O   UNL     1      16.988   9.549  21.055  0.00  0.00    +0.000 OA
ATOM      2  N   UNL     1      19.005   8.358  20.889  0.00  0.00    +0.000 N 
ATOM      3  C   UNL     1      17.710   8.602  21.323  0.00  0.00    +0.000 C 
ATOM      4  H   UNL     1      20.391   8.141  21.810  0.00  0.00    +0.000 HD
ENDROOT
BRANCH   2   9
ATOM      5  S   UNL     1      21.934   7.429  20.365  0.00  0.00    +0.000 S 
ATOM      6  O   UNL     1      18.457   9.116  17.768  0.00  0.00    +0.000 OA
ATOM      7  N   UNL     1      20.683   8.564  18.312  0.00  0.00    +0.000 N 
ATOM      8  C   UNL     1      21.186   8.905  19.632  0.00  0.00    +0.000 C 
ATOM      9  CA  UNL     1      19.722   9.258  19.996  0.00  0.00    +0.000 C 
ATOM     10  C   UNL     1      19.423   9.018  18.488  0.00  0.00    +0.000 C 
ATOM     11  CA  UNL     1      21.427   7.960  17.349  0.00  0.00    +0.000 C 
ATOM     12  C   UNL     1      22.619   7.382  17.630  0.00  0.00    +0.000 C 
ATOM     13  C   UNL     1      23.181   7.265  19.043  0.00  0.00    +0.000 C 
BRANCH  11  15
ATOM     14  OXT UNL     1      20.309   6.933  15.520  0.00  0.00    +0.000 OA
ATOM     15  C   UNL     1      20.852   7.909  15.996  0.00  0.00    +0.000 C 
BRANCH  15  16
ATOM     16  O   UNL     1      21.027   9.101  15.391  0.00  0.00    +0.000 OA
ATOM     17  H   UNL     1      19.635   7.837  20.273  0.00  0.00    +0.000 HD
ENDBRANCH  15  16
ENDBRANCH  11  15
BRANCH  12  18
ATOM     18  C   UNL     1      23.538   6.769  16.602  0.00  0.00    +0.000 C 
BRANCH  18  19
ATOM     19  N   UNL     1      24.735   7.631  16.340  0.00  0.00    +0.000 N 
ATOM     20  C   UNL     1      25.957   7.126  16.561  0.00  0.00    +0.000 A 
ATOM     21  C   UNL     1      24.546   8.880  15.892  0.00  0.00    +0.000 A 
ATOM     22  C   UNL     1      27.083   7.902  16.328  0.00  0.00    +0.000 A 
ATOM     23  C   UNL     1      25.635   9.702  15.642  0.00  0.00    +0.000 A 
ATOM     24  C   UNL     1      26.916   9.203  15.863  0.00  0.00    +0.000 A 
ENDBRANCH  18  19
ENDBRANCH  12  18
ENDBRANCH   2   9
BRANCH   3  26
ATOM     25  N   UNL     1      16.225   7.804  23.080  0.00  0.00    +0.000 NA
ATOM     26  C   UNL     1      17.181   7.534  22.243  0.00  0.00    +0.000 C 
BRANCH  26  30
ATOM     27  S   UNL     1      18.286   3.781  21.493  0.00  0.00    +0.000 S 
ATOM     28  N   UNL     1      18.759   5.787  23.053  0.00  0.00    +0.000 NA
ATOM     29  N   UNL     1      20.064   3.861  23.470  0.00  0.00    +0.000 N 
ATOM     30  C   UNL     1      17.767   6.168  22.171  0.00  0.00    +0.000 A 
ATOM     31  C   UNL     1      17.379   5.216  21.252  0.00  0.00    +0.000 A 
ATOM     32  C   UNL     1      19.109   4.548  22.789  0.00  0.00    +0.000 A 
ATOM     33  H   UNL     1      14.019   7.461  21.321  0.00  0.00    +0.000 HD
ATOM     34  H   UNL     1      14.019   7.461  21.321  0.00  0.00    +0.000 HD
ENDBRANCH  26  30
BRANCH  25  35
ATOM     35  O   UNL     1      15.868   6.683  23.842  0.00  0.00    +0.000 OA
BRANCH  35  36
ATOM     36  C   UNL     1      14.472   6.742  24.086  0.00  0.00    +0.000 C 
ATOM     37  C   UNL     1      14.017   8.157  23.740  0.00  0.00    +0.000 C 
ATOM     38  C   UNL     1      13.786   5.705  23.196  0.00  0.00    +0.000 C 
BRANCH  36  41
ATOM     39  O   UNL     1      15.054   5.759  26.222  0.00  0.00    +0.000 OA
ATOM     40  N   UNL     1      13.102   6.999  26.098  0.00  0.00    +0.000 N 
ATOM     41  C   UNL     1      14.258   6.440  25.576  0.00  0.00    +0.000 C 
ATOM     42  H   UNL     1      15.657  10.722  27.821  0.00  0.00    +0.000 HD
BRANCH  40  43
ATOM     43  C   UNL     1      12.703   6.840  27.478  0.00  0.00    +0.000 C 
BRANCH  43  45
ATOM     44  O   UNL     1      11.845   9.087  27.405  0.00  0.00    +0.000 OA
ATOM     45  C   UNL     1      11.946   8.028  28.011  0.00  0.00    +0.000 C 
BRANCH  45  46
ATOM     46  O   UNL     1      11.387   7.814  29.226  0.00  0.00    +0.000 OA
ATOM     47  H   UNL     1       9.753   8.526  30.995  0.00  0.00    +0.000 HD
ENDBRANCH  45  46
ENDBRANCH  43  45
ENDBRANCH  40  43
ENDBRANCH  36  41
ENDBRANCH  35  36
ENDBRANCH  25  35
ENDBRANCH   3  26
TORSDOF 13
ENDMDL
MODEL 10
REMARK minimizedAffinity -7.41718864
REMARK minimizedRMSD -1
REMARK  Name = 170454597
REMARK  15 active torsions:
REMARK  status: ('A' for Active; 'I' for Inactive)
REMARK    1  A    between atoms: O_4  and  C_25
REMARK    2  A    between atoms: O_7  and  N_14
REMARK    3  A    between atoms: O_7  and  C_33
REMARK    4  A    between atoms: O_9  and  C_41
REMARK    5  A    between atoms: N_12  and  CA_19
REMARK    6  A    between atoms: N_13  and  C_24
REMARK    7  A    between atoms: N_16  and  C_40
REMARK    8  A    between atoms: CA_21  and  C_25
REMARK    9  A    between atoms: C_22  and  C_24
REMARK   10  A    between atoms: C_26  and  C_27
REMARK   11  A    between atoms: C_27  and  C_30
REMARK   12  A    between atoms: C_33  and  C_36
REMARK   13  A    between atoms: C_33  and  C_37
REMARK   14  A    between atoms: C_33  and  C_38
REMARK   15  A    between atoms: C_40  and  C_41
REMARK                            x       y       z     vdW  Elec       q    Type
REMARK                         _______ _______ _______ _____ _____    ______ ____
ROOT
ATOM      1  O   UNL     1      21.251   7.919  16.056  0.00  0.00    +0.000 OA
ATOM      2  N   UNL     1      20.612   6.894  18.070  0.00  0.00    +0.000 N 
ATOM      3  C   UNL     1      21.501   7.349  17.106  0.00  0.00    +0.000 C 
ATOM      4  H   UNL     1      20.414   5.333  18.653  0.00  0.00    +0.000 HD
ENDROOT
BRANCH   2   9
ATOM      5  S   UNL     1      19.072   5.525  20.409  0.00  0.00    +0.000 S 
ATOM      6  O   UNL     1      18.763   9.576  18.134  0.00  0.00    +0.000 OA
ATOM      7  N   UNL     1      18.034   7.797  19.498  0.00  0.00    +0.000 N 
ATOM      8  C   UNL     1      18.279   6.433  19.059  0.00  0.00    +0.000 C 
ATOM      9  CA  UNL     1      19.169   7.049  17.951  0.00  0.00    +0.000 C 
ATOM     10  C   UNL     1      18.639   8.419  18.462  0.00  0.00    +0.000 C 
ATOM     11  CA  UNL     1      17.385   8.119  20.646  0.00  0.00    +0.000 C 
ATOM     12  C   UNL     1      17.149   7.200  21.612  0.00  0.00    +0.000 C 
ATOM     13  C   UNL     1      17.669   5.767  21.550  0.00  0.00    +0.000 C 
BRANCH  11  15
ATOM     14  OXT UNL     1      15.979  10.019  20.386  0.00  0.00    +0.000 OA
ATOM     15  C   UNL     1      17.002   9.529  20.822  0.00  0.00    +0.000 C 
BRANCH  15  16
ATOM     16  O   UNL     1      17.954  10.166  21.531  0.00  0.00    +0.000 OA
ATOM     17  H   UNL     1      15.786   5.435  22.064  0.00  0.00    +0.000 HD
ENDBRANCH  15  16
ENDBRANCH  11  15
BRANCH  12  18
ATOM     18  C   UNL     1      16.362   7.462  22.873  0.00  0.00    +0.000 C 
BRANCH  18  19
ATOM     19  N   UNL     1      14.887   7.335  22.646  0.00  0.00    +0.000 N 
ATOM     20  C   UNL     1      14.119   8.428  22.760  0.00  0.00    +0.000 A 
ATOM     21  C   UNL     1      14.382   6.133  22.336  0.00  0.00    +0.000 A 
ATOM     22  C   UNL     1      12.750   8.340  22.556  0.00  0.00    +0.000 A 
ATOM     23  C   UNL     1      13.020   5.985  22.121  0.00  0.00    +0.000 A 
ATOM     24  C   UNL     1      12.198   7.103  22.233  0.00  0.00    +0.000 A 
ENDBRANCH  18  19
ENDBRANCH  12  18
ENDBRANCH   2   9
BRANCH   3  26
ATOM     25  N   UNL     1      23.635   6.239  16.731  0.00  0.00    +0.000 NA
ATOM     26  C   UNL     1      22.940   7.071  17.447  0.00  0.00    +0.000 C 
BRANCH  26  30
ATOM     27  S   UNL     1      24.469   8.305  20.913  0.00  0.00    +0.000 S 
ATOM     28  N   UNL     1      23.964   9.082  18.499  0.00  0.00    +0.000 NA
ATOM     29  N   UNL     1      24.967  10.709  19.889  0.00  0.00    +0.000 N 
ATOM     30  C   UNL     1      23.551   7.769  18.611  0.00  0.00    +0.000 A 
ATOM     31  C   UNL     1      23.742   7.180  19.843  0.00  0.00    +0.000 A 
ATOM     32  C   UNL     1      24.465   9.469  19.651  0.00  0.00    +0.000 A 
ATOM     33  H   UNL     1      20.714   4.874  18.482  0.00  0.00    +0.000 HD
ATOM     34  H   UNL     1      20.714   4.874  18.482  0.00  0.00    +0.000 HD
ENDBRANCH  26  30
BRANCH  25  35
ATOM     35  O   UNL     1      24.950   6.120  17.202  0.00  0.00    +0.000 OA
BRANCH  35  36
ATOM     36  C   UNL     1      25.652   5.245  16.333  0.00  0.00    +0.000 C 
ATOM     37  C   UNL     1      25.861   3.937  17.091  0.00  0.00    +0.000 C 
ATOM     38  C   UNL     1      24.803   5.031  15.081  0.00  0.00    +0.000 C 
BRANCH  36  41
ATOM     39  O   UNL     1      27.760   5.445  15.160  0.00  0.00    +0.000 OA
ATOM     40  N   UNL     1      27.242   7.062  16.733  0.00  0.00    +0.000 N 
ATOM     41  C   UNL     1      26.994   5.912  16.001  0.00  0.00    +0.000 C 
ATOM     42  H   UNL     1      25.654   9.768  13.057  0.00  0.00    +0.000 HD
BRANCH  40  43
ATOM     43  C   UNL     1      28.445   7.849  16.583  0.00  0.00    +0.000 C 
BRANCH  43  45
ATOM     44  O   UNL     1      27.854  10.172  16.369  0.00  0.00    +0.000 OA
ATOM     45  C   UNL     1      28.218   9.134  15.831  0.00  0.00    +0.000 C 
BRANCH  45  46
ATOM     46  O   UNL     1      28.453   9.032  14.501  0.00  0.00    +0.000 OA
ATOM     47  H   UNL     1      28.851  10.166  12.296  0.00  0.00    +0.000 HD
ENDBRANCH  45  46
ENDBRANCH  43  45
ENDBRANCH  40  43
ENDBRANCH  36  41
ENDBRANCH  35  36
ENDBRANCH  25  35
ENDBRANCH   3  26
TORSDOF 13
ENDMDL
MODEL 11
REMARK minimizedAffinity -7.41215467
REMARK minimizedRMSD -1
REMARK  Name = 170454597
REMARK  15 active torsions:
REMARK  status: ('A' for Active; 'I' for Inactive)
REMARK    1  A    between atoms: O_4  and  C_25
REMARK    2  A    between atoms: O_7  and  N_14
REMARK    3  A    between atoms: O_7  and  C_33
REMARK    4  A    between atoms: O_9  and  C_41
REMARK    5  A    between atoms: N_12  and  CA_19
REMARK    6  A    between atoms: N_13  and  C_24
REMARK    7  A    between atoms: N_16  and  C_40
REMARK    8  A    between atoms: CA_21  and  C_25
REMARK    9  A    between atoms: C_22  and  C_24
REMARK   10  A    between atoms: C_26  and  C_27
REMARK   11  A    between atoms: C_27  and  C_30
REMARK   12  A    between atoms: C_33  and  C_36
REMARK   13  A    between atoms: C_33  and  C_37
REMARK   14  A    between atoms: C_33  and  C_38
REMARK   15  A    between atoms: C_40  and  C_41
REMARK                            x       y       z     vdW  Elec       q    Type
REMARK                         _______ _______ _______ _____ _____    ______ ____
ROOT
ATOM      1  O   UNL     1      14.279   9.128  21.833  0.00  0.00    +0.000 OA
ATOM      2  N   UNL     1      14.882   7.112  22.876  0.00  0.00    +0.000 N 
ATOM      3  C   UNL     1      15.014   8.165  21.982  0.00  0.00    +0.000 C 
ATOM      4  H   UNL     1      14.776   5.470  22.544  0.00  0.00    +0.000 HD
ENDROOT
BRANCH   2   9
ATOM      5  S   UNL     1      12.843   4.893  22.077  0.00  0.00    +0.000 S 
ATOM      6  O   UNL     1      14.866   6.296  26.029  0.00  0.00    +0.000 OA
ATOM      7  N   UNL     1      13.264   5.211  24.683  0.00  0.00    +0.000 N 
ATOM      8  C   UNL     1      12.697   5.929  23.554  0.00  0.00    +0.000 C 
ATOM      9  CA  UNL     1      13.777   7.008  23.818  0.00  0.00    +0.000 C 
ATOM     10  C   UNL     1      14.112   6.180  25.092  0.00  0.00    +0.000 C 
ATOM     11  CA  UNL     1      12.913   3.946  25.032  0.00  0.00    +0.000 C 
ATOM     12  C   UNL     1      12.201   3.151  24.198  0.00  0.00    +0.000 C 
ATOM     13  C   UNL     1      11.823   3.552  22.776  0.00  0.00    +0.000 C 
BRANCH  11  15
ATOM     14  OXT UNL     1      12.773   3.566  27.375  0.00  0.00    +0.000 OA
ATOM     15  C   UNL     1      13.390   3.457  26.334  0.00  0.00    +0.000 C 
BRANCH  15  16
ATOM     16  O   UNL     1      14.600   2.882  26.180  0.00  0.00    +0.000 OA
ATOM     17  H   UNL     1      10.242   2.676  23.292  0.00  0.00    +0.000 HD
ENDBRANCH  15  16
ENDBRANCH  11  15
BRANCH  12  18
ATOM     18  C   UNL     1      11.702   1.770  24.548  0.00  0.00    +0.000 C 
BRANCH  18  19
ATOM     19  N   UNL     1      10.343   1.812  25.177  0.00  0.00    +0.000 N 
ATOM     20  C   UNL     1      10.205   1.406  26.448  0.00  0.00    +0.000 A 
ATOM     21  C   UNL     1       9.308   2.254  24.450  0.00  0.00    +0.000 A 
ATOM     22  C   UNL     1       8.959   1.433  27.055  0.00  0.00    +0.000 A 
ATOM     23  C   UNL     1       8.037   2.303  25.006  0.00  0.00    +0.000 A 
ATOM     24  C   UNL     1       7.865   1.887  26.323  0.00  0.00    +0.000 A 
ENDBRANCH  18  19
ENDBRANCH  12  18
ENDBRANCH   2   9
BRANCH   3  26
ATOM     25  N   UNL     1      16.451   8.924  20.169  0.00  0.00    +0.000 NA
ATOM     26  C   UNL     1      16.233   8.052  21.106  0.00  0.00    +0.000 C 
BRANCH  26  30
ATOM     27  S   UNL     1      19.106   5.513  22.190  0.00  0.00    +0.000 S 
ATOM     28  N   UNL     1      17.022   5.730  20.675  0.00  0.00    +0.000 NA
ATOM     29  N   UNL     1      18.116   3.637  20.585  0.00  0.00    +0.000 N 
ATOM     30  C   UNL     1      17.184   6.930  21.338  0.00  0.00    +0.000 A 
ATOM     31  C   UNL     1      18.257   7.003  22.201  0.00  0.00    +0.000 A 
ATOM     32  C   UNL     1      17.978   4.908  21.046  0.00  0.00    +0.000 A 
ATOM     33  H   UNL     1      17.789  10.940  21.413  0.00  0.00    +0.000 HD
ATOM     34  H   UNL     1      17.789  10.940  21.413  0.00  0.00    +0.000 HD
ENDBRANCH  26  30
BRANCH  25  35
ATOM     35  O   UNL     1      17.635   8.653  19.469  0.00  0.00    +0.000 OA
BRANCH  35  36
ATOM     36  C   UNL     1      18.250   9.890  19.146  0.00  0.00    +0.000 C 
ATOM     37  C   UNL     1      17.129  10.877  18.832  0.00  0.00    +0.000 C 
ATOM     38  C   UNL     1      19.069  10.347  20.353  0.00  0.00    +0.000 C 
BRANCH  36  41
ATOM     39  O   UNL     1      18.749   9.902  16.777  0.00  0.00    +0.000 OA
ATOM     40  N   UNL     1      20.385   9.131  18.222  0.00  0.00    +0.000 N 
ATOM     41  C   UNL     1      19.137   9.650  17.917  0.00  0.00    +0.000 C 
ATOM     42  H   UNL     1      22.302  13.562  18.012  0.00  0.00    +0.000 HD
BRANCH  40  43
ATOM     43  C   UNL     1      21.380   8.826  17.218  0.00  0.00    +0.000 C 
BRANCH  43  45
ATOM     44  O   UNL     1      21.867   6.469  17.253  0.00  0.00    +0.000 OA
ATOM     45  C   UNL     1      21.292   7.408  16.717  0.00  0.00    +0.000 C 
BRANCH  45  46
ATOM     46  O   UNL     1      20.517   7.270  15.615  0.00  0.00    +0.000 OA
ATOM     47  H   UNL     1      19.248   5.765  14.056  0.00  0.00    +0.000 HD
ENDBRANCH  45  46
ENDBRANCH  43  45
ENDBRANCH  40  43
ENDBRANCH  36  41
ENDBRANCH  35  36
ENDBRANCH  25  35
ENDBRANCH   3  26
TORSDOF 13
ENDMDL
MODEL 12
REMARK minimizedAffinity -7.36880207
REMARK minimizedRMSD -1
REMARK  Name = 170454597
REMARK  15 active torsions:
REMARK  status: ('A' for Active; 'I' for Inactive)
REMARK    1  A    between atoms: O_4  and  C_25
REMARK    2  A    between atoms: O_7  and  N_14
REMARK    3  A    between atoms: O_7  and  C_33
REMARK    4  A    between atoms: O_9  and  C_41
REMARK    5  A    between atoms: N_12  and  CA_19
REMARK    6  A    between atoms: N_13  and  C_24
REMARK    7  A    between atoms: N_16  and  C_40
REMARK    8  A    between atoms: CA_21  and  C_25
REMARK    9  A    between atoms: C_22  and  C_24
REMARK   10  A    between atoms: C_26  and  C_27
REMARK   11  A    between atoms: C_27  and  C_30
REMARK   12  A    between atoms: C_33  and  C_36
REMARK   13  A    between atoms: C_33  and  C_37
REMARK   14  A    between atoms: C_33  and  C_38
REMARK   15  A    between atoms: C_40  and  C_41
REMARK                            x       y       z     vdW  Elec       q    Type
REMARK                         _______ _______ _______ _____ _____    ______ ____
ROOT
ATOM      1  O   UNL     1      21.586   6.638  16.565  0.00  0.00    +0.000 OA
ATOM      2  N   UNL     1      20.881   6.745  18.802  0.00  0.00    +0.000 N 
ATOM      3  C   UNL     1      21.799   6.749  17.761  0.00  0.00    +0.000 C 
ATOM      4  H   UNL     1      20.808   5.715  20.125  0.00  0.00    +0.000 HD
ENDROOT
BRANCH   2   9
ATOM      5  S   UNL     1      19.356   6.055  21.432  0.00  0.00    +0.000 S 
ATOM      6  O   UNL     1      18.658   8.918  17.826  0.00  0.00    +0.000 OA
ATOM      7  N   UNL     1      18.080   7.643  19.724  0.00  0.00    +0.000 N 
ATOM      8  C   UNL     1      18.562   6.276  19.821  0.00  0.00    +0.000 C 
ATOM      9  CA  UNL     1      19.447   6.599  18.591  0.00  0.00    +0.000 C 
ATOM     10  C   UNL     1      18.677   7.950  18.551  0.00  0.00    +0.000 C 
ATOM     11  CA  UNL     1      17.291   8.238  20.655  0.00  0.00    +0.000 C 
ATOM     12  C   UNL     1      17.107   7.695  21.882  0.00  0.00    +0.000 C 
ATOM     13  C   UNL     1      17.836   6.445  22.363  0.00  0.00    +0.000 C 
BRANCH  11  15
ATOM     14  OXT UNL     1      15.594   9.656  19.781  0.00  0.00    +0.000 OA
ATOM     15  C   UNL     1      16.689   9.530  20.292  0.00  0.00    +0.000 C 
BRANCH  15  16
ATOM     16  O   UNL     1      17.539  10.525  20.616  0.00  0.00    +0.000 OA
ATOM     17  H   UNL     1      16.166   6.151  23.135  0.00  0.00    +0.000 HD
ENDBRANCH  15  16
ENDBRANCH  11  15
BRANCH  12  18
ATOM     18  C   UNL     1      16.180   8.251  22.936  0.00  0.00    +0.000 C 
BRANCH  18  19
ATOM     19  N   UNL     1      14.758   7.845  22.697  0.00  0.00    +0.000 N 
ATOM     20  C   UNL     1      13.801   8.784  22.744  0.00  0.00    +0.000 A 
ATOM     21  C   UNL     1      14.487   6.558  22.442  0.00  0.00    +0.000 A 
ATOM     22  C   UNL     1      12.476   8.437  22.528  0.00  0.00    +0.000 A 
ATOM     23  C   UNL     1      13.179   6.153  22.218  0.00  0.00    +0.000 A 
ATOM     24  C   UNL     1      12.166   7.106  22.262  0.00  0.00    +0.000 A 
ENDBRANCH  18  19
ENDBRANCH  12  18
ENDBRANCH   2   9
BRANCH   3  26
ATOM     25  N   UNL     1      23.503   7.702  19.215  0.00  0.00    +0.000 NA
ATOM     26  C   UNL     1      23.222   6.908  18.226  0.00  0.00    +0.000 C 
BRANCH  26  30
ATOM     27  S   UNL     1      26.111   5.415  15.925  0.00  0.00    +0.000 S 
ATOM     28  N   UNL     1      24.685   4.905  18.020  0.00  0.00    +0.000 NA
ATOM     29  N   UNL     1      26.252   3.234  17.439  0.00  0.00    +0.000 N 
ATOM     30  C   UNL     1      24.294   6.138  17.538  0.00  0.00    +0.000 A 
ATOM     31  C   UNL     1      24.952   6.582  16.410  0.00  0.00    +0.000 A 
ATOM     32  C   UNL     1      25.638   4.431  17.248  0.00  0.00    +0.000 A 
ATOM     33  H   UNL     1      21.525   8.694  16.037  0.00  0.00    +0.000 HD
ATOM     34  H   UNL     1      21.525   8.694  16.037  0.00  0.00    +0.000 HD
ENDBRANCH  26  30
BRANCH  25  35
ATOM     35  O   UNL     1      24.875   7.711  19.502  0.00  0.00    +0.000 OA
BRANCH  35  36
ATOM     36  C   UNL     1      25.158   8.867  20.273  0.00  0.00    +0.000 C 
ATOM     37  C   UNL     1      23.845   9.628  20.434  0.00  0.00    +0.000 C 
ATOM     38  C   UNL     1      25.708   8.416  21.627  0.00  0.00    +0.000 C 
BRANCH  36  41
ATOM     39  O   UNL     1      26.775  10.648  20.002  0.00  0.00    +0.000 OA
ATOM     40  N   UNL     1      26.373   9.269  18.187  0.00  0.00    +0.000 N 
ATOM     41  C   UNL     1      26.187   9.695  19.492  0.00  0.00    +0.000 C 
ATOM     42  H   UNL     1      30.284   6.772  19.539  0.00  0.00    +0.000 HD
BRANCH  40  43
ATOM     43  C   UNL     1      27.292   9.906  17.271  0.00  0.00    +0.000 C 
BRANCH  43  45
ATOM     44  O   UNL     1      27.618   8.804  15.157  0.00  0.00    +0.000 OA
ATOM     45  C   UNL     1      26.984   9.609  15.827  0.00  0.00    +0.000 C 
BRANCH  45  46
ATOM     46  O   UNL     1      25.937  10.317  15.340  0.00  0.00    +0.000 OA
ATOM     47  H   UNL     1      24.206  10.636  13.549  0.00  0.00    +0.000 HD
ENDBRANCH  45  46
ENDBRANCH  43  45
ENDBRANCH  40  43
ENDBRANCH  36  41
ENDBRANCH  35  36
ENDBRANCH  25  35
ENDBRANCH   3  26
TORSDOF 13
ENDMDL
MODEL 13
REMARK minimizedAffinity -7.33633709
REMARK minimizedRMSD -1
REMARK  Name = 170454597
REMARK  15 active torsions:
REMARK  status: ('A' for Active; 'I' for Inactive)
REMARK    1  A    between atoms: O_4  and  C_25
REMARK    2  A    between atoms: O_7  and  N_14
REMARK    3  A    between atoms: O_7  and  C_33
REMARK    4  A    between atoms: O_9  and  C_41
REMARK    5  A    between atoms: N_12  and  CA_19
REMARK    6  A    between atoms: N_13  and  C_24
REMARK    7  A    between atoms: N_16  and  C_40
REMARK    8  A    between atoms: CA_21  and  C_25
REMARK    9  A    between atoms: C_22  and  C_24
REMARK   10  A    between atoms: C_26  and  C_27
REMARK   11  A    between atoms: C_27  and  C_30
REMARK   12  A    between atoms: C_33  and  C_36
REMARK   13  A    between atoms: C_33  and  C_37
REMARK   14  A    between atoms: C_33  and  C_38
REMARK   15  A    between atoms: C_40  and  C_41
REMARK                            x       y       z     vdW  Elec       q    Type
REMARK                         _______ _______ _______ _____ _____    ______ ____
ROOT
ATOM      1  O   UNL     1      15.232   2.400  23.669  0.00  0.00    +0.000 OA
ATOM      2  N   UNL     1      13.921   4.347  23.592  0.00  0.00    +0.000 N 
ATOM      3  C   UNL     1      14.187   2.992  23.451  0.00  0.00    +0.000 C 
ATOM      4  H   UNL     1      13.386   5.430  22.428  0.00  0.00    +0.000 HD
ENDROOT
BRANCH   2   9
ATOM      5  S   UNL     1      15.662   5.454  21.255  0.00  0.00    +0.000 S 
ATOM      6  O   UNL     1      13.557   7.265  24.992  0.00  0.00    +0.000 OA
ATOM      7  N   UNL     1      15.082   7.174  23.197  0.00  0.00    +0.000 N 
ATOM      8  C   UNL     1      15.841   5.953  22.985  0.00  0.00    +0.000 C 
ATOM      9  CA  UNL     1      14.918   5.306  24.047  0.00  0.00    +0.000 C 
ATOM     10  C   UNL     1      14.359   6.743  24.254  0.00  0.00    +0.000 C 
ATOM     11  CA  UNL     1      15.210   8.289  22.433  0.00  0.00    +0.000 C 
ATOM     12  C   UNL     1      15.859   8.266  21.244  0.00  0.00    +0.000 C 
ATOM     13  C   UNL     1      16.408   6.990  20.614  0.00  0.00    +0.000 C 
BRANCH  11  15
ATOM     14  OXT UNL     1      13.364   9.722  22.871  0.00  0.00    +0.000 OA
ATOM     15  C   UNL     1      14.559   9.513  22.925  0.00  0.00    +0.000 C 
BRANCH  15  16
ATOM     16  O   UNL     1      15.493  10.343  23.432  0.00  0.00    +0.000 OA
ATOM     17  H   UNL     1      14.853   5.164  23.802  0.00  0.00    +0.000 HD
ENDBRANCH  15  16
ENDBRANCH  11  15
BRANCH  12  18
ATOM     18  C   UNL     1      16.115   9.478  20.382  0.00  0.00    +0.000 C 
BRANCH  18  19
ATOM     19  N   UNL     1      17.554   9.580  19.976  0.00  0.00    +0.000 N 
ATOM     20  C   UNL     1      17.847   9.793  18.685  0.00  0.00    +0.000 A 
ATOM     21  C   UNL     1      18.500   9.454  20.915  0.00  0.00    +0.000 A 
ATOM     22  C   UNL     1      19.170   9.891  18.280  0.00  0.00    +0.000 A 
ATOM     23  C   UNL     1      19.841   9.542  20.568  0.00  0.00    +0.000 A 
ATOM     24  C   UNL     1      20.175   9.763  19.235  0.00  0.00    +0.000 A 
ENDBRANCH  18  19
ENDBRANCH  12  18
ENDBRANCH   2   9
BRANCH   3  26
ATOM     25  N   UNL     1      11.796   2.628  23.179  0.00  0.00    +0.000 NA
ATOM     26  C   UNL     1      13.003   2.202  22.962  0.00  0.00    +0.000 C 
BRANCH  26  30
ATOM     27  S   UNL     1      13.514  -1.517  21.629  0.00  0.00    +0.000 S 
ATOM     28  N   UNL     1      13.542   0.956  20.875  0.00  0.00    +0.000 NA
ATOM     29  N   UNL     1      14.010  -0.619  19.175  0.00  0.00    +0.000 N 
ATOM     30  C   UNL     1      13.241   0.932  22.223  0.00  0.00    +0.000 A 
ATOM     31  C   UNL     1      13.182  -0.316  22.806  0.00  0.00    +0.000 A 
ATOM     32  C   UNL     1      13.706  -0.279  20.455  0.00  0.00    +0.000 A 
ATOM     33  H   UNL     1      13.999   1.899  26.088  0.00  0.00    +0.000 HD
ATOM     34  H   UNL     1      13.999   1.899  26.088  0.00  0.00    +0.000 HD
ENDBRANCH  26  30
BRANCH  25  35
ATOM     35  O   UNL     1      10.833   1.762  22.643  0.00  0.00    +0.000 OA
BRANCH  35  36
ATOM     36  C   UNL     1       9.714   1.750  23.516  0.00  0.00    +0.000 C 
ATOM     37  C   UNL     1       9.093   0.359  23.426  0.00  0.00    +0.000 C 
ATOM     38  C   UNL     1      10.209   2.046  24.932  0.00  0.00    +0.000 C 
BRANCH  36  41
ATOM     39  O   UNL     1       9.069   4.008  22.928  0.00  0.00    +0.000 OA
ATOM     40  N   UNL     1       7.483   2.337  22.701  0.00  0.00    +0.000 N 
ATOM     41  C   UNL     1       8.739   2.826  23.020  0.00  0.00    +0.000 C 
ATOM     42  H   UNL     1       8.722   2.144  18.034  0.00  0.00    +0.000 HD
BRANCH  40  43
ATOM     43  C   UNL     1       6.409   3.175  22.217  0.00  0.00    +0.000 C 
BRANCH  43  45
ATOM     44  O   UNL     1       4.977   3.222  24.150  0.00  0.00    +0.000 OA
ATOM     45  C   UNL     1       5.638   3.841  23.326  0.00  0.00    +0.000 C 
BRANCH  45  46
ATOM     46  O   UNL     1       5.745   5.190  23.326  0.00  0.00    +0.000 OA
ATOM     47  H   UNL     1       5.445   7.370  24.536  0.00  0.00    +0.000 HD
ENDBRANCH  45  46
ENDBRANCH  43  45
ENDBRANCH  40  43
ENDBRANCH  36  41
ENDBRANCH  35  36
ENDBRANCH  25  35
ENDBRANCH   3  26
TORSDOF 13
ENDMDL
MODEL 14
REMARK minimizedAffinity -7.32721758
REMARK minimizedRMSD -1
REMARK  Name = 170454597
REMARK  15 active torsions:
REMARK  status: ('A' for Active; 'I' for Inactive)
REMARK    1  A    between atoms: O_4  and  C_25
REMARK    2  A    between atoms: O_7  and  N_14
REMARK    3  A    between atoms: O_7  and  C_33
REMARK    4  A    between atoms: O_9  and  C_41
REMARK    5  A    between atoms: N_12  and  CA_19
REMARK    6  A    between atoms: N_13  and  C_24
REMARK    7  A    between atoms: N_16  and  C_40
REMARK    8  A    between atoms: CA_21  and  C_25
REMARK    9  A    between atoms: C_22  and  C_24
REMARK   10  A    between atoms: C_26  and  C_27
REMARK   11  A    between atoms: C_27  and  C_30
REMARK   12  A    between atoms: C_33  and  C_36
REMARK   13  A    between atoms: C_33  and  C_37
REMARK   14  A    between atoms: C_33  and  C_38
REMARK   15  A    between atoms: C_40  and  C_41
REMARK                            x       y       z     vdW  Elec       q    Type
REMARK                         _______ _______ _______ _____ _____    ______ ____
ROOT
ATOM      1  O   UNL     1      21.251   8.040  15.617  0.00  0.00    +0.000 OA
ATOM      2  N   UNL     1      20.653   7.200  17.727  0.00  0.00    +0.000 N 
ATOM      3  C   UNL     1      21.515   7.508  16.684  0.00  0.00    +0.000 C 
ATOM      4  H   UNL     1      20.346   5.702  18.419  0.00  0.00    +0.000 HD
ENDROOT
BRANCH   2   9
ATOM      5  S   UNL     1      19.076   5.739  19.985  0.00  0.00    +0.000 S 
ATOM      6  O   UNL     1      19.056  10.011  18.132  0.00  0.00    +0.000 OA
ATOM      7  N   UNL     1      18.217   8.172  19.346  0.00  0.00    +0.000 N 
ATOM      8  C   UNL     1      18.323   6.844  18.766  0.00  0.00    +0.000 C 
ATOM      9  CA  UNL     1      19.226   7.489  17.686  0.00  0.00    +0.000 C 
ATOM     10  C   UNL     1      18.839   8.842  18.351  0.00  0.00    +0.000 C 
ATOM     11  CA  UNL     1      17.640   8.432  20.548  0.00  0.00    +0.000 C 
ATOM     12  C   UNL     1      17.355   7.443  21.428  0.00  0.00    +0.000 C 
ATOM     13  C   UNL     1      17.742   5.985  21.204  0.00  0.00    +0.000 C 
BRANCH  11  15
ATOM     14  OXT UNL     1      16.366  10.439  20.609  0.00  0.00    +0.000 OA
ATOM     15  C   UNL     1      17.391   9.844  20.877  0.00  0.00    +0.000 C 
BRANCH  15  16
ATOM     16  O   UNL     1      18.467  10.352  21.510  0.00  0.00    +0.000 OA
ATOM     17  H   UNL     1      16.012   5.753  21.942  0.00  0.00    +0.000 HD
ENDBRANCH  15  16
ENDBRANCH  11  15
BRANCH  12  18
ATOM     18  C   UNL     1      16.639   7.643  22.742  0.00  0.00    +0.000 C 
BRANCH  18  19
ATOM     19  N   UNL     1      15.154   7.511  22.593  0.00  0.00    +0.000 N 
ATOM     20  C   UNL     1      14.391   8.607  22.716  0.00  0.00    +0.000 A 
ATOM     21  C   UNL     1      14.635   6.302  22.340  0.00  0.00    +0.000 A 
ATOM     22  C   UNL     1      13.014   8.514  22.583  0.00  0.00    +0.000 A 
ATOM     23  C   UNL     1      13.264   6.148  22.198  0.00  0.00    +0.000 A 
ATOM     24  C   UNL     1      12.448   7.269  22.322  0.00  0.00    +0.000 A 
ENDBRANCH  18  19
ENDBRANCH  12  18
ENDBRANCH   2   9
BRANCH   3  26
ATOM     25  N   UNL     1      23.918   7.733  16.369  0.00  0.00    +0.000 NA
ATOM     26  C   UNL     1      22.940   7.110  16.955  0.00  0.00    +0.000 C 
BRANCH  26  30
ATOM     27  S   UNL     1      23.766   4.668  19.992  0.00  0.00    +0.000 S 
ATOM     28  N   UNL     1      23.136   4.685  17.485  0.00  0.00    +0.000 NA
ATOM     29  N   UNL     1      23.427   2.540  18.433  0.00  0.00    +0.000 N 
ATOM     30  C   UNL     1      23.208   5.998  17.907  0.00  0.00    +0.000 A 
ATOM     31  C   UNL     1      23.536   6.188  19.233  0.00  0.00    +0.000 A 
ATOM     32  C   UNL     1      23.411   3.897  18.500  0.00  0.00    +0.000 A 
ATOM     33  H   UNL     1      24.757   9.743  17.745  0.00  0.00    +0.000 HD
ATOM     34  H   UNL     1      24.757   9.743  17.745  0.00  0.00    +0.000 HD
ENDBRANCH  26  30
BRANCH  25  35
ATOM     35  O   UNL     1      25.166   7.223  16.753  0.00  0.00    +0.000 OA
BRANCH  35  36
ATOM     36  C   UNL     1      26.071   8.309  16.865  0.00  0.00    +0.000 C 
ATOM     37  C   UNL     1      27.376   7.872  16.206  0.00  0.00    +0.000 C 
ATOM     38  C   UNL     1      25.464   9.515  16.147  0.00  0.00    +0.000 C 
BRANCH  36  41
ATOM     39  O   UNL     1      26.749   7.738  19.118  0.00  0.00    +0.000 OA
ATOM     40  N   UNL     1      25.865   9.847  18.758  0.00  0.00    +0.000 N 
ATOM     41  C   UNL     1      26.271   8.583  18.362  0.00  0.00    +0.000 C 
ATOM     42  H   UNL     1      30.422  11.428  18.459  0.00  0.00    +0.000 HD
BRANCH  40  43
ATOM     43  C   UNL     1      25.960  10.315  20.122  0.00  0.00    +0.000 C 
BRANCH  43  45
ATOM     44  O   UNL     1      23.713   9.595  20.595  0.00  0.00    +0.000 OA
ATOM     45  C   UNL     1      24.624  10.383  20.814  0.00  0.00    +0.000 C 
BRANCH  45  46
ATOM     46  O   UNL     1      24.525  11.400  21.702  0.00  0.00    +0.000 OA
ATOM     47  H   UNL     1      23.312  12.462  23.628  0.00  0.00    +0.000 HD
ENDBRANCH  45  46
ENDBRANCH  43  45
ENDBRANCH  40  43
ENDBRANCH  36  41
ENDBRANCH  35  36
ENDBRANCH  25  35
ENDBRANCH   3  26
TORSDOF 13
ENDMDL
MODEL 15
REMARK minimizedAffinity -7.32151651
REMARK minimizedRMSD -1
REMARK  Name = 170454597
REMARK  15 active torsions:
REMARK  status: ('A' for Active; 'I' for Inactive)
REMARK    1  A    between atoms: O_4  and  C_25
REMARK    2  A    between atoms: O_7  and  N_14
REMARK    3  A    between atoms: O_7  and  C_33
REMARK    4  A    between atoms: O_9  and  C_41
REMARK    5  A    between atoms: N_12  and  CA_19
REMARK    6  A    between atoms: N_13  and  C_24
REMARK    7  A    between atoms: N_16  and  C_40
REMARK    8  A    between atoms: CA_21  and  C_25
REMARK    9  A    between atoms: C_22  and  C_24
REMARK   10  A    between atoms: C_26  and  C_27
REMARK   11  A    between atoms: C_27  and  C_30
REMARK   12  A    between atoms: C_33  and  C_36
REMARK   13  A    between atoms: C_33  and  C_37
REMARK   14  A    between atoms: C_33  and  C_38
REMARK   15  A    between atoms: C_40  and  C_41
REMARK                            x       y       z     vdW  Elec       q    Type
REMARK                         _______ _______ _______ _____ _____    ______ ____
ROOT
ATOM      1  O   UNL     1      22.313   6.129  18.680  0.00  0.00    +0.000 OA
ATOM      2  N   UNL     1      21.182   8.187  18.646  0.00  0.00    +0.000 N 
ATOM      3  C   UNL     1      22.282   7.347  18.757  0.00  0.00    +0.000 C 
ATOM      4  H   UNL     1      20.598   9.294  19.764  0.00  0.00    +0.000 HD
ENDROOT
BRANCH   2   9
ATOM      5  S   UNL     1      19.743   7.328  21.274  0.00  0.00    +0.000 S 
ATOM      6  O   UNL     1      18.563   9.712  17.453  0.00  0.00    +0.000 OA
ATOM      7  N   UNL     1      18.212   8.461  19.419  0.00  0.00    +0.000 N 
ATOM      8  C   UNL     1      18.993   7.253  19.629  0.00  0.00    +0.000 C 
ATOM      9  CA  UNL     1      19.833   7.696  18.405  0.00  0.00    +0.000 C 
ATOM     10  C   UNL     1      18.773   8.824  18.245  0.00  0.00    +0.000 C 
ATOM     11  CA  UNL     1      17.265   8.912  20.282  0.00  0.00    +0.000 C 
ATOM     12  C   UNL     1      17.158   8.420  21.540  0.00  0.00    +0.000 C 
ATOM     13  C   UNL     1      18.135   7.409  22.130  0.00  0.00    +0.000 C 
BRANCH  11  15
ATOM     14  OXT UNL     1      15.237   9.859  19.481  0.00  0.00    +0.000 OA
ATOM     15  C   UNL     1      16.397  10.002  19.810  0.00  0.00    +0.000 C 
BRANCH  15  16
ATOM     16  O   UNL     1      17.092  11.157  19.805  0.00  0.00    +0.000 OA
ATOM     17  H   UNL     1      16.892   7.218  23.243  0.00  0.00    +0.000 HD
ENDBRANCH  15  16
ENDBRANCH  11  15
BRANCH  12  18
ATOM     18  C   UNL     1      16.081   8.809  22.524  0.00  0.00    +0.000 C 
BRANCH  18  19
ATOM     19  N   UNL     1      14.859   7.955  22.379  0.00  0.00    +0.000 N 
ATOM     20  C   UNL     1      15.010   6.641  22.158  0.00  0.00    +0.000 A 
ATOM     21  C   UNL     1      13.653   8.531  22.475  0.00  0.00    +0.000 A 
ATOM     22  C   UNL     1      13.897   5.827  22.019  0.00  0.00    +0.000 A 
ATOM     23  C   UNL     1      12.503   7.766  22.344  0.00  0.00    +0.000 A 
ATOM     24  C   UNL     1      12.631   6.399  22.114  0.00  0.00    +0.000 A 
ENDBRANCH  18  19
ENDBRANCH  12  18
ENDBRANCH   2   9
BRANCH   3  26
ATOM     25  N   UNL     1      23.806   8.607  20.175  0.00  0.00    +0.000 NA
ATOM     26  C   UNL     1      23.569   8.084  19.010  0.00  0.00    +0.000 C 
BRANCH  26  30
ATOM     27  S   UNL     1      26.465   7.732  16.297  0.00  0.00    +0.000 S 
ATOM     28  N   UNL     1      24.570   9.305  17.085  0.00  0.00    +0.000 NA
ATOM     29  N   UNL     1      25.815  10.081  15.232  0.00  0.00    +0.000 N 
ATOM     30  C   UNL     1      24.563   8.196  17.908  0.00  0.00    +0.000 A 
ATOM     31  C   UNL     1      25.516   7.236  17.636  0.00  0.00    +0.000 A 
ATOM     32  C   UNL     1      25.531   9.169  16.199  0.00  0.00    +0.000 A 
ATOM     33  H   UNL     1      24.864   6.417  21.541  0.00  0.00    +0.000 HD
ATOM     34  H   UNL     1      24.864   6.417  21.541  0.00  0.00    +0.000 HD
ENDBRANCH  26  30
BRANCH  25  35
ATOM     35  O   UNL     1      25.055   9.244  20.216  0.00  0.00    +0.000 OA
BRANCH  35  36
ATOM     36  C   UNL     1      25.721   8.834  21.399  0.00  0.00    +0.000 C 
ATOM     37  C   UNL     1      25.172   7.458  21.767  0.00  0.00    +0.000 C 
ATOM     38  C   UNL     1      27.220   8.772  21.107  0.00  0.00    +0.000 C 
BRANCH  36  41
ATOM     39  O   UNL     1      24.825  10.925  22.226  0.00  0.00    +0.000 OA
ATOM     40  N   UNL     1      25.813   9.494  23.754  0.00  0.00    +0.000 N 
ATOM     41  C   UNL     1      25.398   9.868  22.486  0.00  0.00    +0.000 C 
ATOM     42  H   UNL     1      21.362   7.908  24.765  0.00  0.00    +0.000 HD
BRANCH  40  43
ATOM     43  C   UNL     1      25.613  10.318  24.924  0.00  0.00    +0.000 C 
BRANCH  43  45
ATOM     44  O   UNL     1      27.002  11.231  26.665  0.00  0.00    +0.000 OA
ATOM     45  C   UNL     1      26.904  10.822  25.515  0.00  0.00    +0.000 C 
BRANCH  45  46
ATOM     46  O   UNL     1      27.947  10.780  24.653  0.00  0.00    +0.000 OA
ATOM     47  H   UNL     1      30.428  10.873  24.275  0.00  0.00    +0.000 HD
ENDBRANCH  45  46
ENDBRANCH  43  45
ENDBRANCH  40  43
ENDBRANCH  36  41
ENDBRANCH  35  36
ENDBRANCH  25  35
ENDBRANCH   3  26
TORSDOF 13
ENDMDL
MODEL 16
REMARK minimizedAffinity -7.29667568
REMARK minimizedRMSD -1
REMARK  Name = 170454597
REMARK  15 active torsions:
REMARK  status: ('A' for Active; 'I' for Inactive)
REMARK    1  A    between atoms: O_4  and  C_25
REMARK    2  A    between atoms: O_7  and  N_14
REMARK    3  A    between atoms: O_7  and  C_33
REMARK    4  A    between atoms: O_9  and  C_41
REMARK    5  A    between atoms: N_12  and  CA_19
REMARK    6  A    between atoms: N_13  and  C_24
REMARK    7  A    between atoms: N_16  and  C_40
REMARK    8  A    between atoms: CA_21  and  C_25
REMARK    9  A    between atoms: C_22  and  C_24
REMARK   10  A    between atoms: C_26  and  C_27
REMARK   11  A    between atoms: C_27  and  C_30
REMARK   12  A    between atoms: C_33  and  C_36
REMARK   13  A    between atoms: C_33  and  C_37
REMARK   14  A    between atoms: C_33  and  C_38
REMARK   15  A    between atoms: C_40  and  C_41
REMARK                            x       y       z     vdW  Elec       q    Type
REMARK                         _______ _______ _______ _____ _____    ______ ____
ROOT
ATOM      1  O   UNL     1      14.259   7.035  23.432  0.00  0.00    +0.000 OA
ATOM      2  N   UNL     1      15.802   7.029  21.661  0.00  0.00    +0.000 N 
ATOM      3  C   UNL     1      14.812   6.505  22.482  0.00  0.00    +0.000 C 
ATOM      4  H   UNL     1      17.338   6.422  21.364  0.00  0.00    +0.000 HD
ENDROOT
BRANCH   2   9
ATOM      5  S   UNL     1      18.895   7.110  21.282  0.00  0.00    +0.000 S 
ATOM      6  O   UNL     1      15.301   9.753  19.948  0.00  0.00    +0.000 OA
ATOM      7  N   UNL     1      17.553   9.233  20.409  0.00  0.00    +0.000 N 
ATOM      8  C   UNL     1      17.874   8.557  21.655  0.00  0.00    +0.000 C 
ATOM      9  CA  UNL     1      16.348   8.367  21.836  0.00  0.00    +0.000 C 
ATOM     10  C   UNL     1      16.213   9.271  20.577  0.00  0.00    +0.000 C 
ATOM     11  CA  UNL     1      18.479   9.610  19.490  0.00  0.00    +0.000 C 
ATOM     12  C   UNL     1      19.752   9.147  19.532  0.00  0.00    +0.000 C 
ATOM     13  C   UNL     1      20.230   8.101  20.533  0.00  0.00    +0.000 C 
BRANCH  11  15
ATOM     14  OXT UNL     1      17.866  10.147  17.256  0.00  0.00    +0.000 OA
ATOM     15  C   UNL     1      18.023  10.497  18.409  0.00  0.00    +0.000 C 
BRANCH  15  16
ATOM     16  O   UNL     1      17.817  11.734  18.903  0.00  0.00    +0.000 OA
ATOM     17  H   UNL     1      16.691   6.988  20.792  0.00  0.00    +0.000 HD
ENDBRANCH  15  16
ENDBRANCH  11  15
BRANCH  12  18
ATOM     18  C   UNL     1      20.855   9.585  18.599  0.00  0.00    +0.000 C 
BRANCH  18  19
ATOM     19  N   UNL     1      21.345   8.455  17.746  0.00  0.00    +0.000 N 
ATOM     20  C   UNL     1      20.457   7.761  17.019  0.00  0.00    +0.000 A 
ATOM     21  C   UNL     1      22.655   8.174  17.736  0.00  0.00    +0.000 A 
ATOM     22  C   UNL     1      20.882   6.710  16.221  0.00  0.00    +0.000 A 
ATOM     23  C   UNL     1      23.137   7.133  16.956  0.00  0.00    +0.000 A 
ATOM     24  C   UNL     1      22.238   6.395  16.192  0.00  0.00    +0.000 A 
ENDBRANCH  18  19
ENDBRANCH  12  18
ENDBRANCH   2   9
BRANCH   3  26
ATOM     25  N   UNL     1      14.958   4.516  21.087  0.00  0.00    +0.000 NA
ATOM     26  C   UNL     1      14.412   5.103  22.109  0.00  0.00    +0.000 C 
BRANCH  26  30
ATOM     27  S   UNL     1      12.251   2.971  24.689  0.00  0.00    +0.000 S 
ATOM     28  N   UNL     1      12.047   4.547  22.650  0.00  0.00    +0.000 NA
ATOM     29  N   UNL     1       9.996   3.757  23.520  0.00  0.00    +0.000 N 
ATOM     30  C   UNL     1      13.390   4.403  22.934  0.00  0.00    +0.000 A 
ATOM     31  C   UNL     1      13.697   3.587  24.003  0.00  0.00    +0.000 A 
ATOM     32  C   UNL     1      11.352   3.838  23.512  0.00  0.00    +0.000 A 
ATOM     33  H   UNL     1      17.170   3.306  21.953  0.00  0.00    +0.000 HD
ATOM     34  H   UNL     1      17.170   3.306  21.953  0.00  0.00    +0.000 HD
ENDBRANCH  26  30
BRANCH  25  35
ATOM     35  O   UNL     1      14.462   3.217  20.906  0.00  0.00    +0.000 OA
BRANCH  35  36
ATOM     36  C   UNL     1      15.547   2.375  20.550  0.00  0.00    +0.000 C 
ATOM     37  C   UNL     1      16.702   3.285  20.143  0.00  0.00    +0.000 C 
ATOM     38  C   UNL     1      15.912   1.526  21.768  0.00  0.00    +0.000 C 
BRANCH  36  41
ATOM     39  O   UNL     1      15.173   1.893  18.207  0.00  0.00    +0.000 OA
ATOM     40  N   UNL     1      14.564   0.281  19.753  0.00  0.00    +0.000 N 
ATOM     41  C   UNL     1      15.083   1.508  19.373  0.00  0.00    +0.000 C 
ATOM     42  H   UNL     1      18.824  -1.820  18.862  0.00  0.00    +0.000 HD
BRANCH  40  43
ATOM     43  C   UNL     1      14.066  -0.693  18.808  0.00  0.00    +0.000 C 
BRANCH  43  45
ATOM     44  O   UNL     1      14.968  -2.912  19.048  0.00  0.00    +0.000 OA
ATOM     45  C   UNL     1      15.048  -1.802  18.536  0.00  0.00    +0.000 C 
BRANCH  45  46
ATOM     46  O   UNL     1      16.030  -1.457  17.669  0.00  0.00    +0.000 OA
ATOM     47  H   UNL     1      17.890  -2.162  16.136  0.00  0.00    +0.000 HD
ENDBRANCH  45  46
ENDBRANCH  43  45
ENDBRANCH  40  43
ENDBRANCH  36  41
ENDBRANCH  35  36
ENDBRANCH  25  35
ENDBRANCH   3  26
TORSDOF 13
ENDMDL
MODEL 17
REMARK minimizedAffinity -7.11119413
REMARK minimizedRMSD -1
REMARK  Name = 170454597
REMARK  15 active torsions:
REMARK  status: ('A' for Active; 'I' for Inactive)
REMARK    1  A    between atoms: O_4  and  C_25
REMARK    2  A    between atoms: O_7  and  N_14
REMARK    3  A    between atoms: O_7  and  C_33
REMARK    4  A    between atoms: O_9  and  C_41
REMARK    5  A    between atoms: N_12  and  CA_19
REMARK    6  A    between atoms: N_13  and  C_24
REMARK    7  A    between atoms: N_16  and  C_40
REMARK    8  A    between atoms: CA_21  and  C_25
REMARK    9  A    between atoms: C_22  and  C_24
REMARK   10  A    between atoms: C_26  and  C_27
REMARK   11  A    between atoms: C_27  and  C_30
REMARK   12  A    between atoms: C_33  and  C_36
REMARK   13  A    between atoms: C_33  and  C_37
REMARK   14  A    between atoms: C_33  and  C_38
REMARK   15  A    between atoms: C_40  and  C_41
REMARK                            x       y       z     vdW  Elec       q    Type
REMARK                         _______ _______ _______ _____ _____    ______ ____
ROOT
ATOM      1  O   UNL     1      14.828   9.201  22.542  0.00  0.00    +0.000 OA
ATOM      2  N   UNL     1      15.387   7.003  23.151  0.00  0.00    +0.000 N 
ATOM      3  C   UNL     1      15.425   8.150  22.371  0.00  0.00    +0.000 C 
ATOM      4  H   UNL     1      14.953   5.447  22.696  0.00  0.00    +0.000 HD
ENDROOT
BRANCH   2   9
ATOM      5  S   UNL     1      12.667   5.572  22.628  0.00  0.00    +0.000 S 
ATOM      6  O   UNL     1      15.945   5.397  25.930  0.00  0.00    +0.000 OA
ATOM      7  N   UNL     1      13.812   5.083  24.976  0.00  0.00    +0.000 N 
ATOM      8  C   UNL     1      13.204   6.181  24.245  0.00  0.00    +0.000 C 
ATOM      9  CA  UNL     1      14.577   6.891  24.356  0.00  0.00    +0.000 C 
ATOM     10  C   UNL     1      14.976   5.701  25.274  0.00  0.00    +0.000 C 
ATOM     11  CA  UNL     1      13.217   3.878  25.169  0.00  0.00    +0.000 C 
ATOM     12  C   UNL     1      12.120   3.507  24.467  0.00  0.00    +0.000 C 
ATOM     13  C   UNL     1      11.522   4.345  23.342  0.00  0.00    +0.000 C 
BRANCH  11  15
ATOM     14  OXT UNL     1      13.543   2.889  27.307  0.00  0.00    +0.000 OA
ATOM     15  C   UNL     1      13.851   2.967  26.134  0.00  0.00    +0.000 C 
BRANCH  15  16
ATOM     16  O   UNL     1      14.809   2.252  25.512  0.00  0.00    +0.000 OA
ATOM     17  H   UNL     1       9.983   3.641  24.047  0.00  0.00    +0.000 HD
ENDBRANCH  15  16
ENDBRANCH  11  15
BRANCH  12  18
ATOM     18  C   UNL     1      11.355   2.224  24.685  0.00  0.00    +0.000 C 
BRANCH  18  19
ATOM     19  N   UNL     1      11.504   1.282  23.529  0.00  0.00    +0.000 N 
ATOM     20  C   UNL     1      12.728   1.067  23.024  0.00  0.00    +0.000 A 
ATOM     21  C   UNL     1      10.411   0.685  23.037  0.00  0.00    +0.000 A 
ATOM     22  C   UNL     1      12.896   0.201  21.954  0.00  0.00    +0.000 A 
ATOM     23  C   UNL     1      10.518  -0.192  21.967  0.00  0.00    +0.000 A 
ATOM     24  C   UNL     1      11.776  -0.433  21.422  0.00  0.00    +0.000 A 
ENDBRANCH  18  19
ENDBRANCH  12  18
ENDBRANCH   2   9
BRANCH   3  26
ATOM     25  N   UNL     1      16.585   9.062  20.435  0.00  0.00    +0.000 NA
ATOM     26  C   UNL     1      16.330   8.025  21.175  0.00  0.00    +0.000 C 
BRANCH  26  30
ATOM     27  S   UNL     1      18.502   4.717  20.721  0.00  0.00    +0.000 S 
ATOM     28  N   UNL     1      16.229   5.781  20.102  0.00  0.00    +0.000 NA
ATOM     29  N   UNL     1      16.573   3.594  19.274  0.00  0.00    +0.000 N 
ATOM     30  C   UNL     1      16.927   6.700  20.860  0.00  0.00    +0.000 A 
ATOM     31  C   UNL     1      18.178   6.303  21.286  0.00  0.00    +0.000 A 
ATOM     32  C   UNL     1      16.962   4.699  19.965  0.00  0.00    +0.000 A 
ATOM     33  H   UNL     1      18.692  10.311  21.400  0.00  0.00    +0.000 HD
ATOM     34  H   UNL     1      18.692  10.311  21.400  0.00  0.00    +0.000 HD
ENDBRANCH  26  30
BRANCH  25  35
ATOM     35  O   UNL     1      17.449   8.747  19.377  0.00  0.00    +0.000 OA
BRANCH  35  36
ATOM     36  C   UNL     1      18.148   9.926  19.012  0.00  0.00    +0.000 C 
ATOM     37  C   UNL     1      17.103  11.017  18.797  0.00  0.00    +0.000 C 
ATOM     38  C   UNL     1      19.102  10.289  20.150  0.00  0.00    +0.000 C 
BRANCH  36  41
ATOM     39  O   UNL     1      18.615  10.166  16.648  0.00  0.00    +0.000 OA
ATOM     40  N   UNL     1      19.923   8.692  17.864  0.00  0.00    +0.000 N 
ATOM     41  C   UNL     1      18.906   9.622  17.713  0.00  0.00    +0.000 C 
ATOM     42  H   UNL     1      23.160  12.262  18.227  0.00  0.00    +0.000 HD
BRANCH  40  43
ATOM     43  C   UNL     1      20.763   8.257  16.771  0.00  0.00    +0.000 C 
BRANCH  43  45
ATOM     44  O   UNL     1      21.346   6.053  15.999  0.00  0.00    +0.000 OA
ATOM     45  C   UNL     1      20.474   6.844  16.336  0.00  0.00    +0.000 C 
BRANCH  45  46
ATOM     46  O   UNL     1      19.157   6.531  16.351  0.00  0.00    +0.000 OA
ATOM     47  H   UNL     1      17.365   4.772  16.298  0.00  0.00    +0.000 HD
ENDBRANCH  45  46
ENDBRANCH  43  45
ENDBRANCH  40  43
ENDBRANCH  36  41
ENDBRANCH  35  36
ENDBRANCH  25  35
ENDBRANCH   3  26
TORSDOF 13
ENDMDL
MODEL 18
REMARK minimizedAffinity -7.10915041
REMARK minimizedRMSD -1
REMARK  Name = 170454597
REMARK  15 active torsions:
REMARK  status: ('A' for Active; 'I' for Inactive)
REMARK    1  A    between atoms: O_4  and  C_25
REMARK    2  A    between atoms: O_7  and  N_14
REMARK    3  A    between atoms: O_7  and  C_33
REMARK    4  A    between atoms: O_9  and  C_41
REMARK    5  A    between atoms: N_12  and  CA_19
REMARK    6  A    between atoms: N_13  and  C_24
REMARK    7  A    between atoms: N_16  and  C_40
REMARK    8  A    between atoms: CA_21  and  C_25
REMARK    9  A    between atoms: C_22  and  C_24
REMARK   10  A    between atoms: C_26  and  C_27
REMARK   11  A    between atoms: C_27  and  C_30
REMARK   12  A    between atoms: C_33  and  C_36
REMARK   13  A    between atoms: C_33  and  C_37
REMARK   14  A    between atoms: C_33  and  C_38
REMARK   15  A    between atoms: C_40  and  C_41
REMARK                            x       y       z     vdW  Elec       q    Type
REMARK                         _______ _______ _______ _____ _____    ______ ____
ROOT
ATOM      1  O   UNL     1      17.531   8.501  19.726  0.00  0.00    +0.000 OA
ATOM      2  N   UNL     1      19.030   7.209  18.461  0.00  0.00    +0.000 N 
ATOM      3  C   UNL     1      18.060   7.443  19.426  0.00  0.00    +0.000 C 
ATOM      4  H   UNL     1      20.558   6.544  18.659  0.00  0.00    +0.000 HD
ENDROOT
BRANCH   2   9
ATOM      5  S   UNL     1      21.522   8.570  19.749  0.00  0.00    +0.000 S 
ATOM      6  O   UNL     1      20.371   7.065  15.496  0.00  0.00    +0.000 OA
ATOM      7  N   UNL     1      21.575   8.296  17.105  0.00  0.00    +0.000 N 
ATOM      8  C   UNL     1      20.839   9.013  18.133  0.00  0.00    +0.000 C 
ATOM      9  CA  UNL     1      19.583   8.264  17.623  0.00  0.00    +0.000 C 
ATOM     10  C   UNL     1      20.509   7.744  16.486  0.00  0.00    +0.000 C 
ATOM     11  CA  UNL     1      22.929   8.306  16.996  0.00  0.00    +0.000 C 
ATOM     12  C   UNL     1      23.720   8.764  17.995  0.00  0.00    +0.000 C 
ATOM     13  C   UNL     1      23.183   9.209  19.351  0.00  0.00    +0.000 C 
BRANCH  11  15
ATOM     14  OXT UNL     1      23.913   6.600  15.663  0.00  0.00    +0.000 OA
ATOM     15  C   UNL     1      23.502   7.739  15.765  0.00  0.00    +0.000 C 
BRANCH  15  16
ATOM     16  O   UNL     1      23.496   8.675  14.796  0.00  0.00    +0.000 OA
ATOM     17  H   UNL     1      19.947   7.368  18.411  0.00  0.00    +0.000 HD
ENDBRANCH  15  16
ENDBRANCH  11  15
BRANCH  12  18
ATOM     18  C   UNL     1      25.222   8.885  17.913  0.00  0.00    +0.000 C 
BRANCH  18  19
ATOM     19  N   UNL     1      25.902   7.575  18.172  0.00  0.00    +0.000 N 
ATOM     20  C   UNL     1      26.907   7.198  17.369  0.00  0.00    +0.000 A 
ATOM     21  C   UNL     1      25.483   6.822  19.198  0.00  0.00    +0.000 A 
ATOM     22  C   UNL     1      27.554   5.990  17.585  0.00  0.00    +0.000 A 
ATOM     23  C   UNL     1      26.092   5.603  19.461  0.00  0.00    +0.000 A 
ATOM     24  C   UNL     1      27.139   5.187  18.643  0.00  0.00    +0.000 A 
ENDBRANCH  18  19
ENDBRANCH  12  18
ENDBRANCH   2   9
BRANCH   3  26
ATOM     25  N   UNL     1      16.534   6.171  20.832  0.00  0.00    +0.000 NA
ATOM     26  C   UNL     1      17.650   6.199  20.168  0.00  0.00    +0.000 C 
BRANCH  26  30
ATOM     27  S   UNL     1      19.608   2.798  19.486  0.00  0.00    +0.000 S 
ATOM     28  N   UNL     1      19.582   4.880  21.018  0.00  0.00    +0.000 NA
ATOM     29  N   UNL     1      21.296   3.318  21.475  0.00  0.00    +0.000 N 
ATOM     30  C   UNL     1      18.539   5.007  20.122  0.00  0.00    +0.000 A 
ATOM     31  C   UNL     1      18.394   3.978  19.215  0.00  0.00    +0.000 A 
ATOM     32  C   UNL     1      20.215   3.754  20.776  0.00  0.00    +0.000 A 
ATOM     33  H   UNL     1      14.602   5.378  19.224  0.00  0.00    +0.000 HD
ATOM     34  H   UNL     1      14.602   5.378  19.224  0.00  0.00    +0.000 HD
ENDBRANCH  26  30
BRANCH  25  35
ATOM     35  O   UNL     1      16.325   4.929  21.448  0.00  0.00    +0.000 OA
BRANCH  35  36
ATOM     36  C   UNL     1      15.676   5.154  22.689  0.00  0.00    +0.000 C 
ATOM     37  C   UNL     1      15.550   3.799  23.380  0.00  0.00    +0.000 C 
ATOM     38  C   UNL     1      16.533   6.118  23.510  0.00  0.00    +0.000 C 
BRANCH  36  41
ATOM     39  O   UNL     1      13.566   5.276  21.506  0.00  0.00    +0.000 OA
ATOM     40  N   UNL     1      13.969   6.843  23.163  0.00  0.00    +0.000 N 
ATOM     41  C   UNL     1      14.295   5.748  22.379  0.00  0.00    +0.000 C 
ATOM     42  H   UNL     1      11.429   3.991  26.124  0.00  0.00    +0.000 HD
BRANCH  40  43
ATOM     43  C   UNL     1      12.719   7.558  23.038  0.00  0.00    +0.000 C 
BRANCH  43  45
ATOM     44  O   UNL     1      12.430   9.309  21.412  0.00  0.00    +0.000 OA
ATOM     45  C   UNL     1      12.891   8.950  22.489  0.00  0.00    +0.000 C 
BRANCH  45  46
ATOM     46  O   UNL     1      13.604   9.767  23.299  0.00  0.00    +0.000 OA
ATOM     47  H   UNL     1      14.316  12.096  23.913  0.00  0.00    +0.000 HD
ENDBRANCH  45  46
ENDBRANCH  43  45
ENDBRANCH  40  43
ENDBRANCH  36  41
ENDBRANCH  35  36
ENDBRANCH  25  35
ENDBRANCH   3  26
TORSDOF 13
ENDMDL
MODEL 19
REMARK minimizedAffinity -7.0857172
REMARK minimizedRMSD -1
REMARK  Name = 170454597
REMARK  15 active torsions:
REMARK  status: ('A' for Active; 'I' for Inactive)
REMARK    1  A    between atoms: O_4  and  C_25
REMARK    2  A    between atoms: O_7  and  N_14
REMARK    3  A    between atoms: O_7  and  C_33
REMARK    4  A    between atoms: O_9  and  C_41
REMARK    5  A    between atoms: N_12  and  CA_19
REMARK    6  A    between atoms: N_13  and  C_24
REMARK    7  A    between atoms: N_16  and  C_40
REMARK    8  A    between atoms: CA_21  and  C_25
REMARK    9  A    between atoms: C_22  and  C_24
REMARK   10  A    between atoms: C_26  and  C_27
REMARK   11  A    between atoms: C_27  and  C_30
REMARK   12  A    between atoms: C_33  and  C_36
REMARK   13  A    between atoms: C_33  and  C_37
REMARK   14  A    between atoms: C_33  and  C_38
REMARK   15  A    between atoms: C_40  and  C_41
REMARK                            x       y       z     vdW  Elec       q    Type
REMARK                         _______ _______ _______ _____ _____    ______ ____
ROOT
ATOM      1  O   UNL     1      21.254   7.887  15.840  0.00  0.00    +0.000 OA
ATOM      2  N   UNL     1      20.526   6.782  17.780  0.00  0.00    +0.000 N 
ATOM      3  C   UNL     1      21.445   7.188  16.822  0.00  0.00    +0.000 C 
ATOM      4  H   UNL     1      20.110   5.219  18.229  0.00  0.00    +0.000 HD
ENDROOT
BRANCH   2   9
ATOM      5  S   UNL     1      18.873   5.472  20.076  0.00  0.00    +0.000 S 
ATOM      6  O   UNL     1      19.113   9.696  18.131  0.00  0.00    +0.000 OA
ATOM      7  N   UNL     1      18.166   7.941  19.388  0.00  0.00    +0.000 N 
ATOM      8  C   UNL     1      18.184   6.596  18.836  0.00  0.00    +0.000 C 
ATOM      9  CA  UNL     1      19.121   7.160  17.738  0.00  0.00    +0.000 C 
ATOM     10  C   UNL     1      18.824   8.548  18.376  0.00  0.00    +0.000 C 
ATOM     11  CA  UNL     1      17.613   8.262  20.586  0.00  0.00    +0.000 C 
ATOM     12  C   UNL     1      17.272   7.312  21.488  0.00  0.00    +0.000 C 
ATOM     13  C   UNL     1      17.564   5.828  21.294  0.00  0.00    +0.000 C 
BRANCH  11  15
ATOM     14  OXT UNL     1      16.447  10.333  20.663  0.00  0.00    +0.000 OA
ATOM     15  C   UNL     1      17.456   9.694  20.885  0.00  0.00    +0.000 C 
BRANCH  15  16
ATOM     16  O   UNL     1      18.594  10.164  21.433  0.00  0.00    +0.000 OA
ATOM     17  H   UNL     1      15.947   5.710  22.162  0.00  0.00    +0.000 HD
ENDBRANCH  15  16
ENDBRANCH  11  15
BRANCH  12  18
ATOM     18  C   UNL     1      16.577   7.586  22.800  0.00  0.00    +0.000 C 
BRANCH  18  19
ATOM     19  N   UNL     1      15.085   7.543  22.661  0.00  0.00    +0.000 N 
ATOM     20  C   UNL     1      14.395   8.689  22.750  0.00  0.00    +0.000 A 
ATOM     21  C   UNL     1      14.490   6.362  22.450  0.00  0.00    +0.000 A 
ATOM     22  C   UNL     1      13.013   8.680  22.625  0.00  0.00    +0.000 A 
ATOM     23  C   UNL     1      13.111   6.291  22.318  0.00  0.00    +0.000 A 
ATOM     24  C   UNL     1      12.368   7.465  22.407  0.00  0.00    +0.000 A 
ENDBRANCH  18  19
ENDBRANCH  12  18
ENDBRANCH   2   9
BRANCH   3  26
ATOM     25  N   UNL     1      23.046   5.391  17.186  0.00  0.00    +0.000 NA
ATOM     26  C   UNL     1      22.835   6.668  17.074  0.00  0.00    +0.000 C 
BRANCH  26  30
ATOM     27  S   UNL     1      25.942   9.127  16.662  0.00  0.00    +0.000 S 
ATOM     28  N   UNL     1      24.232   8.252  18.392  0.00  0.00    +0.000 NA
ATOM     29  N   UNL     1      25.792   9.820  19.225  0.00  0.00    +0.000 N 
ATOM     30  C   UNL     1      23.957   7.639  17.186  0.00  0.00    +0.000 A 
ATOM     31  C   UNL     1      24.776   7.987  16.132  0.00  0.00    +0.000 A 
ATOM     32  C   UNL     1      25.258   9.058  18.234  0.00  0.00    +0.000 A 
ATOM     33  H   UNL     1      23.549   4.360  14.834  0.00  0.00    +0.000 HD
ATOM     34  H   UNL     1      23.549   4.360  14.834  0.00  0.00    +0.000 HD
ENDBRANCH  26  30
BRANCH  25  35
ATOM     35  O   UNL     1      24.400   5.106  17.412  0.00  0.00    +0.000 OA
BRANCH  35  36
ATOM     36  C   UNL     1      24.661   3.797  16.931  0.00  0.00    +0.000 C 
ATOM     37  C   UNL     1      26.175   3.605  16.959  0.00  0.00    +0.000 C 
ATOM     38  C   UNL     1      23.959   2.800  17.853  0.00  0.00    +0.000 C 
BRANCH  36  41
ATOM     39  O   UNL     1      24.700   4.258  14.555  0.00  0.00    +0.000 OA
ATOM     40  N   UNL     1      22.938   3.006  15.384  0.00  0.00    +0.000 N 
ATOM     41  C   UNL     1      24.119   3.721  15.498  0.00  0.00    +0.000 C 
ATOM     42  H   UNL     1      25.416  -0.915  14.029  0.00  0.00    +0.000 HD
BRANCH  40  43
ATOM     43  C   UNL     1      22.251   2.811  14.127  0.00  0.00    +0.000 C 
BRANCH  43  45
ATOM     44  O   UNL     1      20.434   4.143  14.974  0.00  0.00    +0.000 OA
ATOM     45  C   UNL     1      20.844   3.348  14.137  0.00  0.00    +0.000 C 
BRANCH  45  46
ATOM     46  O   UNL     1      20.073   2.866  13.134  0.00  0.00    +0.000 OA
ATOM     47  H   UNL     1      17.981   3.043  11.756  0.00  0.00    +0.000 HD
ENDBRANCH  45  46
ENDBRANCH  43  45
ENDBRANCH  40  43
ENDBRANCH  36  41
ENDBRANCH  35  36
ENDBRANCH  25  35
ENDBRANCH   3  26
TORSDOF 13
ENDMDL
