MODEL 1
REMARK minimizedAffinity -10.0100164
REMARK minimizedRMSD -1
REMARK  Name = 88420547
REMARK  11 active torsions:
REMARK  status: ('A' for Active; 'I' for Inactive)
REMARK    1  A    between atoms: S_2  and  C_23
REMARK    2  A    between atoms: S_2  and  C_28
REMARK    3  A    between atoms: O_6  and  C_24
REMARK    4  A    between atoms: O_9  and  N_14
REMARK    5  A    between atoms: O_9  and  C_37
REMARK    6  A    between atoms: N_11  and  CA_18
REMARK    7  A    between atoms: N_12  and  C_33
REMARK    8  A    between atoms: CA_20  and  C_24
REMARK    9  A    between atoms: C_21  and  C_23
REMARK   10  A    between atoms: C_25  and  C_26
REMARK   11  A    between atoms: C_26  and  C_30
REMARK                            x       y       z     vdW  Elec       q    Type
REMARK                         _______ _______ _______ _____ _____    ______ ____
ROOT
ATOM      1  S   UNL     1      16.088   5.385  22.039  0.00  0.00    +0.000 S 
ATOM      2  O   UNL     1      15.917  10.032  22.300  0.00  0.00    +0.000 OA
ATOM      3  N   UNL     1      15.110   7.850  21.912  0.00  0.00    +0.000 N 
ATOM      4  C   UNL     1      15.923   6.938  21.126  0.00  0.00    +0.000 C 
ATOM      5  CA  UNL     1      17.073   7.961  21.309  0.00  0.00    +0.000 C 
ATOM      6  C   UNL     1      15.975   8.887  21.912  0.00  0.00    +0.000 C 
ATOM      7  CA  UNL     1      13.876   7.541  22.387  0.00  0.00    +0.000 C 
ATOM      8  C   UNL     1      13.430   6.262  22.420  0.00  0.00    +0.000 C 
ATOM      9  C   UNL     1      14.292   5.062  22.032  0.00  0.00    +0.000 C 
ENDROOT
BRANCH   5  11
ATOM     10  O   UNL     1      19.627   9.377  20.912  0.00  0.00    +0.000 OA
ATOM     11  N   UNL     1      17.646   8.446  20.061  0.00  0.00    +0.000 N 
ATOM     12  C   UNL     1      18.866   9.105  19.997  0.00  0.00    +0.000 C 
ATOM     13  H   UNL     1      17.871   5.610  20.088  0.00  0.00    +0.000 HD
BRANCH  12  15
ATOM     14  N   UNL     1      18.869  10.650  18.116  0.00  0.00    +0.000 NA
ATOM     15  C   UNL     1      19.252   9.507  18.598  0.00  0.00    +0.000 C 
BRANCH  15  19
ATOM     16  S   UNL     1      22.010   7.408  16.633  0.00  0.00    +0.000 S 
ATOM     17  N   UNL     1      19.469   7.538  17.091  0.00  0.00    +0.000 NA
ATOM     18  N   UNL     1      20.146   5.773  15.671  0.00  0.00    +0.000 N 
ATOM     19  C   UNL     1      20.072   8.571  17.781  0.00  0.00    +0.000 A 
ATOM     20  C   UNL     1      21.441   8.662  17.656  0.00  0.00    +0.000 A 
ATOM     21  C   UNL     1      20.395   6.858  16.450  0.00  0.00    +0.000 A 
ATOM     22  H   UNL     1      16.466   8.402  15.384  0.00  0.00    +0.000 HD
ATOM     23  H   UNL     1      16.466   8.402  15.384  0.00  0.00    +0.000 HD
ENDBRANCH  15  19
BRANCH  14  24
ATOM     24  O   UNL     1      18.102  11.373  19.041  0.00  0.00    +0.000 OA
ATOM     25  C   UNL     1      16.742  11.292  18.645  0.00  0.00    +0.000 C 
ENDBRANCH  14  24
ENDBRANCH  12  15
ENDBRANCH   5  11
BRANCH   7  27
ATOM     26  OXT UNL     1      12.399   9.398  22.242  0.00  0.00    +0.000 OA
ATOM     27  C   UNL     1      13.071   8.648  22.922  0.00  0.00    +0.000 C 
BRANCH  27  28
ATOM     28  O   UNL     1      13.203   8.690  24.263  0.00  0.00    +0.000 OA
ATOM     29  H   UNL     1      15.054   5.716  24.420  0.00  0.00    +0.000 HD
ENDBRANCH  27  28
ENDBRANCH   7  27
BRANCH   8  30
ATOM     30  C   UNL     1      12.045   5.848  22.856  0.00  0.00    +0.000 C 
BRANCH  30  31
ATOM     31  S   UNL     1      12.032   4.081  23.202  0.00  0.00    +0.000 S 
BRANCH  31  36
ATOM     32  S   UNL     1       9.741   2.466  24.286  0.00  0.00    +0.000 S 
ATOM     33  N   UNL     1       6.941   2.441  24.436  0.00  0.00    +0.000 N 
ATOM     34  N   UNL     1       9.435   4.607  22.803  0.00  0.00    +0.000 NA
ATOM     35  C   UNL     1       8.091   2.705  23.555  0.00  0.00    +0.000 C 
ATOM     36  C   UNL     1      10.315   3.832  23.354  0.00  0.00    +0.000 C 
ATOM     37  C   UNL     1       8.171   4.169  23.136  0.00  0.00    +0.000 C 
ATOM     38  C   UNL     1       7.120   5.000  23.249  0.00  0.00    +0.000 C 
ATOM     39  C   UNL     1       5.863   3.322  24.417  0.00  0.00    +0.000 C 
ATOM     40  C   UNL     1       6.775   1.084  24.944  0.00  0.00    +0.000 C 
ATOM     41  C   UNL     1       5.887   4.528  23.833  0.00  0.00    +0.000 C 
ENDBRANCH  31  36
ENDBRANCH  30  31
ENDBRANCH   8  30
TORSDOF 9
ENDMDL
MODEL 2
REMARK minimizedAffinity -8.27330971
REMARK minimizedRMSD -1
REMARK  Name = 88420547
REMARK  11 active torsions:
REMARK  status: ('A' for Active; 'I' for Inactive)
REMARK    1  A    between atoms: S_2  and  C_23
REMARK    2  A    between atoms: S_2  and  C_28
REMARK    3  A    between atoms: O_6  and  C_24
REMARK    4  A    between atoms: O_9  and  N_14
REMARK    5  A    between atoms: O_9  and  C_37
REMARK    6  A    between atoms: N_11  and  CA_18
REMARK    7  A    between atoms: N_12  and  C_33
REMARK    8  A    between atoms: CA_20  and  C_24
REMARK    9  A    between atoms: C_21  and  C_23
REMARK   10  A    between atoms: C_25  and  C_26
REMARK   11  A    between atoms: C_26  and  C_30
REMARK                            x       y       z     vdW  Elec       q    Type
REMARK                         _______ _______ _______ _____ _____    ______ ____
ROOT
ATOM      1  S   UNL     1      16.365   5.205  23.155  0.00  0.00    +0.000 S 
ATOM      2  O   UNL     1      15.484   9.717  22.410  0.00  0.00    +0.000 OA
ATOM      3  N   UNL     1      15.066   7.396  22.407  0.00  0.00    +0.000 N 
ATOM      4  C   UNL     1      16.104   6.504  21.923  0.00  0.00    +0.000 C 
ATOM      5  CA  UNL     1      17.056   7.724  22.007  0.00  0.00    +0.000 C 
ATOM      6  C   UNL     1      15.762   8.547  22.281  0.00  0.00    +0.000 C 
ATOM      7  CA  UNL     1      13.836   6.977  22.801  0.00  0.00    +0.000 C 
ATOM      8  C   UNL     1      13.581   5.671  23.056  0.00  0.00    +0.000 C 
ATOM      9  C   UNL     1      14.654   4.584  23.024  0.00  0.00    +0.000 C 
ENDROOT
BRANCH   5  11
ATOM     10  O   UNL     1      18.699  10.091  21.388  0.00  0.00    +0.000 OA
ATOM     11  N   UNL     1      17.721   8.052  20.754  0.00  0.00    +0.000 N 
ATOM     12  C   UNL     1      18.474   9.205  20.579  0.00  0.00    +0.000 C 
ATOM     13  H   UNL     1      19.153   5.919  21.976  0.00  0.00    +0.000 HD
BRANCH  12  15
ATOM     14  N   UNL     1      18.331   9.714  18.202  0.00  0.00    +0.000 NA
ATOM     15  C   UNL     1      19.066   9.325  19.199  0.00  0.00    +0.000 C 
BRANCH  15  19
ATOM     16  S   UNL     1      22.790   8.609  17.978  0.00  0.00    +0.000 S 
ATOM     17  N   UNL     1      21.257   8.515  20.058  0.00  0.00    +0.000 NA
ATOM     18  N   UNL     1      23.487   7.817  20.419  0.00  0.00    +0.000 N 
ATOM     19  C   UNL     1      20.501   8.983  19.001  0.00  0.00    +0.000 A 
ATOM     20  C   UNL     1      21.157   9.101  17.795  0.00  0.00    +0.000 A 
ATOM     21  C   UNL     1      22.481   8.285  19.634  0.00  0.00    +0.000 A 
ATOM     22  H   UNL     1      19.656   6.090  22.115  0.00  0.00    +0.000 HD
ATOM     23  H   UNL     1      19.656   6.090  22.115  0.00  0.00    +0.000 HD
ENDBRANCH  15  19
BRANCH  14  24
ATOM     24  O   UNL     1      17.012   9.976  18.601  0.00  0.00    +0.000 OA
ATOM     25  C   UNL     1      16.835  11.384  18.638  0.00  0.00    +0.000 C 
ENDBRANCH  14  24
ENDBRANCH  12  15
ENDBRANCH   5  11
BRANCH   7  27
ATOM     26  OXT UNL     1      12.017   8.364  22.153  0.00  0.00    +0.000 OA
ATOM     27  C   UNL     1      12.811   8.012  23.002  0.00  0.00    +0.000 C 
BRANCH  27  28
ATOM     28  O   UNL     1      12.901   8.493  24.258  0.00  0.00    +0.000 OA
ATOM     29  H   UNL     1      15.312   6.146  25.248  0.00  0.00    +0.000 HD
ENDBRANCH  27  28
ENDBRANCH   7  27
BRANCH   8  30
ATOM     30  C   UNL     1      12.224   5.118  23.419  0.00  0.00    +0.000 C 
BRANCH  30  31
ATOM     31  S   UNL     1      12.419   3.468  24.114  0.00  0.00    +0.000 S 
BRANCH  31  36
ATOM     32  S   UNL     1       9.603   3.920  23.165  0.00  0.00    +0.000 S 
ATOM     33  N   UNL     1       7.174   2.578  22.759  0.00  0.00    +0.000 N 
ATOM     34  N   UNL     1      10.455   1.646  24.153  0.00  0.00    +0.000 NA
ATOM     35  C   UNL     1       8.318   2.736  23.673  0.00  0.00    +0.000 C 
ATOM     36  C   UNL     1      10.810   2.855  23.854  0.00  0.00    +0.000 C 
ATOM     37  C   UNL     1       9.137   1.456  23.797  0.00  0.00    +0.000 C 
ATOM     38  C   UNL     1       8.650   0.260  23.421  0.00  0.00    +0.000 C 
ATOM     39  C   UNL     1       6.692   1.298  22.500  0.00  0.00    +0.000 C 
ATOM     40  C   UNL     1       6.333   3.746  22.520  0.00  0.00    +0.000 C 
ATOM     41  C   UNL     1       7.336   0.171  22.830  0.00  0.00    +0.000 C 
ENDBRANCH  31  36
ENDBRANCH  30  31
ENDBRANCH   8  30
TORSDOF 9
ENDMDL
MODEL 3
REMARK minimizedAffinity -8.11829281
REMARK minimizedRMSD -1
REMARK  Name = 88420547
REMARK  11 active torsions:
REMARK  status: ('A' for Active; 'I' for Inactive)
REMARK    1  A    between atoms: S_2  and  C_23
REMARK    2  A    between atoms: S_2  and  C_28
REMARK    3  A    between atoms: O_6  and  C_24
REMARK    4  A    between atoms: O_9  and  N_14
REMARK    5  A    between atoms: O_9  and  C_37
REMARK    6  A    between atoms: N_11  and  CA_18
REMARK    7  A    between atoms: N_12  and  C_33
REMARK    8  A    between atoms: CA_20  and  C_24
REMARK    9  A    between atoms: C_21  and  C_23
REMARK   10  A    between atoms: C_25  and  C_26
REMARK   11  A    between atoms: C_26  and  C_30
REMARK                            x       y       z     vdW  Elec       q    Type
REMARK                         _______ _______ _______ _____ _____    ______ ____
ROOT
ATOM      1  S   UNL     1      18.405   6.198  19.170  0.00  0.00    +0.000 S 
ATOM      2  O   UNL     1      15.315   9.570  20.050  0.00  0.00    +0.000 OA
ATOM      3  N   UNL     1      17.445   8.610  19.726  0.00  0.00    +0.000 N 
ATOM      4  C   UNL     1      17.751   7.357  20.395  0.00  0.00    +0.000 C 
ATOM      5  CA  UNL     1      16.232   7.255  20.687  0.00  0.00    +0.000 C 
ATOM      6  C   UNL     1      16.164   8.714  20.143  0.00  0.00    +0.000 C 
ATOM      7  CA  UNL     1      18.338   9.300  18.972  0.00  0.00    +0.000 C 
ATOM      8  C   UNL     1      19.489   8.729  18.539  0.00  0.00    +0.000 C 
ATOM      9  C   UNL     1      19.834   7.259  18.767  0.00  0.00    +0.000 C 
ENDROOT
BRANCH   5  11
ATOM     10  O   UNL     1      13.967   5.811  21.900  0.00  0.00    +0.000 OA
ATOM     11  N   UNL     1      15.902   7.126  22.100  0.00  0.00    +0.000 N 
ATOM     12  C   UNL     1      14.800   6.416  22.556  0.00  0.00    +0.000 C 
ATOM     13  H   UNL     1      18.180   5.505  21.579  0.00  0.00    +0.000 HD
BRANCH  12  15
ATOM     14  N   UNL     1      14.264   7.490  24.674  0.00  0.00    +0.000 NA
ATOM     15  C   UNL     1      14.668   6.421  24.056  0.00  0.00    +0.000 C 
BRANCH  15  19
ATOM     16  S   UNL     1      14.956   2.868  25.835  0.00  0.00    +0.000 S 
ATOM     17  N   UNL     1      16.200   5.113  25.518  0.00  0.00    +0.000 NA
ATOM     18  N   UNL     1      17.315   3.527  26.871  0.00  0.00    +0.000 N 
ATOM     19  C   UNL     1      15.015   5.188  24.812  0.00  0.00    +0.000 A 
ATOM     20  C   UNL     1      14.209   4.070  24.865  0.00  0.00    +0.000 A 
ATOM     21  C   UNL     1      16.275   3.934  26.097  0.00  0.00    +0.000 A 
ATOM     22  H   UNL     1      17.033   8.019  27.398  0.00  0.00    +0.000 HD
ATOM     23  H   UNL     1      17.033   8.019  27.398  0.00  0.00    +0.000 HD
ENDBRANCH  15  19
BRANCH  14  24
ATOM     24  O   UNL     1      13.999   8.537  23.780  0.00  0.00    +0.000 OA
ATOM     25  C   UNL     1      12.601   8.564  23.534  0.00  0.00    +0.000 C 
ENDBRANCH  14  24
ENDBRANCH  12  15
ENDBRANCH   5  11
BRANCH   7  27
ATOM     26  OXT UNL     1      18.325  11.666  19.192  0.00  0.00    +0.000 OA
ATOM     27  C   UNL     1      17.972  10.671  18.591  0.00  0.00    +0.000 C 
BRANCH  27  28
ATOM     28  O   UNL     1      17.198  10.638  17.489  0.00  0.00    +0.000 OA
ATOM     29  H   UNL     1      17.594   7.186  17.013  0.00  0.00    +0.000 HD
ENDBRANCH  27  28
ENDBRANCH   7  27
BRANCH   8  30
ATOM     30  C   UNL     1      20.567   9.452  17.767  0.00  0.00    +0.000 C 
BRANCH  30  31
ATOM     31  S   UNL     1      21.819   8.270  17.243  0.00  0.00    +0.000 S 
BRANCH  31  36
ATOM     32  S   UNL     1      24.707   9.049  17.538  0.00  0.00    +0.000 S 
ATOM     33  N   UNL     1      26.553   9.979  19.433  0.00  0.00    +0.000 N 
ATOM     34  N   UNL     1      23.015   8.956  19.540  0.00  0.00    +0.000 NA
ATOM     35  C   UNL     1      25.438   9.046  19.205  0.00  0.00    +0.000 C 
ATOM     36  C   UNL     1      23.136   8.776  18.262  0.00  0.00    +0.000 C 
ATOM     37  C   UNL     1      24.219   9.387  20.056  0.00  0.00    +0.000 C 
ATOM     38  C   UNL     1      24.303  10.191  21.130  0.00  0.00    +0.000 C 
ATOM     39  C   UNL     1      26.591  10.706  20.619  0.00  0.00    +0.000 C 
ATOM     40  C   UNL     1      27.767   9.788  18.646  0.00  0.00    +0.000 C 
ATOM     41  C   UNL     1      25.565  10.804  21.475  0.00  0.00    +0.000 C 
ENDBRANCH  31  36
ENDBRANCH  30  31
ENDBRANCH   8  30
TORSDOF 9
ENDMDL
MODEL 4
REMARK minimizedAffinity -7.99026012
REMARK minimizedRMSD -1
REMARK  Name = 88420547
REMARK  11 active torsions:
REMARK  status: ('A' for Active; 'I' for Inactive)
REMARK    1  A    between atoms: S_2  and  C_23
REMARK    2  A    between atoms: S_2  and  C_28
REMARK    3  A    between atoms: O_6  and  C_24
REMARK    4  A    between atoms: O_9  and  N_14
REMARK    5  A    between atoms: O_9  and  C_37
REMARK    6  A    between atoms: N_11  and  CA_18
REMARK    7  A    between atoms: N_12  and  C_33
REMARK    8  A    between atoms: CA_20  and  C_24
REMARK    9  A    between atoms: C_21  and  C_23
REMARK   10  A    between atoms: C_25  and  C_26
REMARK   11  A    between atoms: C_26  and  C_30
REMARK                            x       y       z     vdW  Elec       q    Type
REMARK                         _______ _______ _______ _____ _____    ______ ____
ROOT
ATOM      1  S   UNL     1      18.385   6.052  19.133  0.00  0.00    +0.000 S 
ATOM      2  O   UNL     1      15.485   9.576  20.061  0.00  0.00    +0.000 OA
ATOM      3  N   UNL     1      17.557   8.510  19.698  0.00  0.00    +0.000 N 
ATOM      4  C   UNL     1      17.815   7.247  20.366  0.00  0.00    +0.000 C 
ATOM      5  CA  UNL     1      16.300   7.221  20.691  0.00  0.00    +0.000 C 
ATOM      6  C   UNL     1      16.292   8.679  20.141  0.00  0.00    +0.000 C 
ATOM      7  CA  UNL     1      18.467   9.153  18.921  0.00  0.00    +0.000 C 
ATOM      8  C   UNL     1      19.579   8.524  18.467  0.00  0.00    +0.000 C 
ATOM      9  C   UNL     1      19.856   7.040  18.694  0.00  0.00    +0.000 C 
ENDROOT
BRANCH   5  11
ATOM     10  O   UNL     1      14.120   5.706  21.971  0.00  0.00    +0.000 OA
ATOM     11  N   UNL     1      15.995   7.114  22.111  0.00  0.00    +0.000 N 
ATOM     12  C   UNL     1      14.933   6.366  22.600  0.00  0.00    +0.000 C 
ATOM     13  H   UNL     1      18.339   5.587  21.600  0.00  0.00    +0.000 HD
BRANCH  12  15
ATOM     14  N   UNL     1      14.408   7.481  24.699  0.00  0.00    +0.000 NA
ATOM     15  C   UNL     1      14.820   6.404  24.101  0.00  0.00    +0.000 C 
BRANCH  15  19
ATOM     16  S   UNL     1      15.115   2.987  26.128  0.00  0.00    +0.000 S 
ATOM     17  N   UNL     1      16.498   5.006  25.294  0.00  0.00    +0.000 NA
ATOM     18  N   UNL     1      17.717   3.385  26.509  0.00  0.00    +0.000 N 
ATOM     19  C   UNL     1      15.194   5.194  24.881  0.00  0.00    +0.000 A 
ATOM     20  C   UNL     1      14.300   4.206  25.238  0.00  0.00    +0.000 A 
ATOM     21  C   UNL     1      16.574   3.875  25.961  0.00  0.00    +0.000 A 
ATOM     22  H   UNL     1      18.103   7.899  26.611  0.00  0.00    +0.000 HD
ATOM     23  H   UNL     1      18.103   7.899  26.611  0.00  0.00    +0.000 HD
ENDBRANCH  15  19
BRANCH  14  24
ATOM     24  O   UNL     1      14.117   8.504  23.785  0.00  0.00    +0.000 OA
ATOM     25  C   UNL     1      12.711   8.532  23.588  0.00  0.00    +0.000 C 
ENDBRANCH  14  24
ENDBRANCH  12  15
ENDBRANCH   5  11
BRANCH   7  27
ATOM     26  OXT UNL     1      18.612  11.519  19.101  0.00  0.00    +0.000 OA
ATOM     27  C   UNL     1      18.161  10.539  18.541  0.00  0.00    +0.000 C 
BRANCH  27  28
ATOM     28  O   UNL     1      17.314  10.539  17.493  0.00  0.00    +0.000 OA
ATOM     29  H   UNL     1      17.467   7.064  17.052  0.00  0.00    +0.000 HD
ENDBRANCH  27  28
ENDBRANCH   7  27
BRANCH   8  30
ATOM     30  C   UNL     1      20.674   9.190  17.669  0.00  0.00    +0.000 C 
BRANCH  30  31
ATOM     31  S   UNL     1      21.938   7.975  17.262  0.00  0.00    +0.000 S 
BRANCH  31  36
ATOM     32  S   UNL     1      23.162   9.073  19.779  0.00  0.00    +0.000 S 
ATOM     33  N   UNL     1      25.570  10.092  20.793  0.00  0.00    +0.000 N 
ATOM     34  N   UNL     1      24.414   8.976  17.477  0.00  0.00    +0.000 NA
ATOM     35  C   UNL     1      24.658  10.100  19.637  0.00  0.00    +0.000 C 
ATOM     36  C   UNL     1      23.300   8.695  18.075  0.00  0.00    +0.000 C 
ATOM     37  C   UNL     1      25.302   9.502  18.391  0.00  0.00    +0.000 C 
ATOM     38  C   UNL     1      26.634   9.349  18.282  0.00  0.00    +0.000 C 
ATOM     39  C   UNL     1      26.941  10.015  20.568  0.00  0.00    +0.000 C 
ATOM     40  C   UNL     1      25.058  10.600  22.062  0.00  0.00    +0.000 C 
ATOM     41  C   UNL     1      27.493   9.705  19.387  0.00  0.00    +0.000 C 
ENDBRANCH  31  36
ENDBRANCH  30  31
ENDBRANCH   8  30
TORSDOF 9
ENDMDL
MODEL 5
REMARK minimizedAffinity -7.60611534
REMARK minimizedRMSD -1
REMARK  Name = 88420547
REMARK  11 active torsions:
REMARK  status: ('A' for Active; 'I' for Inactive)
REMARK    1  A    between atoms: S_2  and  C_23
REMARK    2  A    between atoms: S_2  and  C_28
REMARK    3  A    between atoms: O_6  and  C_24
REMARK    4  A    between atoms: O_9  and  N_14
REMARK    5  A    between atoms: O_9  and  C_37
REMARK    6  A    between atoms: N_11  and  CA_18
REMARK    7  A    between atoms: N_12  and  C_33
REMARK    8  A    between atoms: CA_20  and  C_24
REMARK    9  A    between atoms: C_21  and  C_23
REMARK   10  A    between atoms: C_25  and  C_26
REMARK   11  A    between atoms: C_26  and  C_30
REMARK                            x       y       z     vdW  Elec       q    Type
REMARK                         _______ _______ _______ _____ _____    ______ ____
ROOT
ATOM      1  S   UNL     1      15.700   5.084  21.665  0.00  0.00    +0.000 S 
ATOM      2  O   UNL     1      13.857   7.313  25.316  0.00  0.00    +0.000 OA
ATOM      3  N   UNL     1      15.263   7.002  23.448  0.00  0.00    +0.000 N 
ATOM      4  C   UNL     1      15.985   5.748  23.324  0.00  0.00    +0.000 C 
ATOM      5  CA  UNL     1      15.054   5.213  24.441  0.00  0.00    +0.000 C 
ATOM      6  C   UNL     1      14.584   6.693  24.575  0.00  0.00    +0.000 C 
ATOM      7  CA  UNL     1      15.398   8.039  22.583  0.00  0.00    +0.000 C 
ATOM      8  C   UNL     1      15.988   7.879  21.373  0.00  0.00    +0.000 C 
ATOM      9  C   UNL     1      16.453   6.526  20.839  0.00  0.00    +0.000 C 
ENDROOT
BRANCH   5  11
ATOM     10  O   UNL     1      16.269   2.553  24.808  0.00  0.00    +0.000 OA
ATOM     11  N   UNL     1      15.756   4.700  25.610  0.00  0.00    +0.000 N 
ATOM     12  C   UNL     1      16.289   3.420  25.668  0.00  0.00    +0.000 C 
ATOM     13  H   UNL     1      17.449   6.595  24.331  0.00  0.00    +0.000 HD
BRANCH  12  15
ATOM     14  N   UNL     1      16.329   2.500  27.921  0.00  0.00    +0.000 NA
ATOM     15  C   UNL     1      16.971   3.118  26.976  0.00  0.00    +0.000 C 
BRANCH  15  19
ATOM     16  S   UNL     1      20.904   3.753  26.982  0.00  0.00    +0.000 S 
ATOM     17  N   UNL     1      18.695   4.543  28.068  0.00  0.00    +0.000 NA
ATOM     18  N   UNL     1      20.641   5.651  28.826  0.00  0.00    +0.000 N 
ATOM     19  C   UNL     1      18.383   3.545  27.165  0.00  0.00    +0.000 A 
ATOM     20  C   UNL     1      19.448   2.995  26.483  0.00  0.00    +0.000 A 
ATOM     21  C   UNL     1      19.996   4.737  28.054  0.00  0.00    +0.000 A 
ATOM     22  H   UNL     1      17.009   4.341  31.197  0.00  0.00    +0.000 HD
ATOM     23  H   UNL     1      17.009   4.341  31.197  0.00  0.00    +0.000 HD
ENDBRANCH  15  19
BRANCH  14  24
ATOM     24  O   UNL     1      15.014   2.196  27.543  0.00  0.00    +0.000 OA
ATOM     25  C   UNL     1      14.366   1.588  28.651  0.00  0.00    +0.000 C 
ENDBRANCH  14  24
ENDBRANCH  12  15
ENDBRANCH   5  11
BRANCH   7  27
ATOM     26  OXT UNL     1      15.454  10.241  23.477  0.00  0.00    +0.000 OA
ATOM     27  C   UNL     1      14.818   9.327  22.989  0.00  0.00    +0.000 C 
BRANCH  27  28
ATOM     28  O   UNL     1      13.495   9.323  22.734  0.00  0.00    +0.000 OA
ATOM     29  H   UNL     1      13.574   6.234  21.076  0.00  0.00    +0.000 HD
ENDBRANCH  27  28
ENDBRANCH   7  27
BRANCH   8  30
ATOM     30  C   UNL     1      16.247   8.996  20.391  0.00  0.00    +0.000 C 
BRANCH  30  31
ATOM     31  S   UNL     1      17.778   9.835  20.833  0.00  0.00    +0.000 S 
BRANCH  31  36
ATOM     32  S   UNL     1      20.561   9.387  19.790  0.00  0.00    +0.000 S 
ATOM     33  N   UNL     1      21.961   8.069  17.749  0.00  0.00    +0.000 N 
ATOM     34  N   UNL     1      18.401   8.507  18.591  0.00  0.00    +0.000 NA
ATOM     35  C   UNL     1      20.762   8.866  18.058  0.00  0.00    +0.000 C 
ATOM     36  C   UNL     1      18.832   9.162  19.622  0.00  0.00    +0.000 C 
ATOM     37  C   UNL     1      19.476   8.077  17.842  0.00  0.00    +0.000 C 
ATOM     38  C   UNL     1      19.446   6.950  17.109  0.00  0.00    +0.000 C 
ATOM     39  C   UNL     1      21.838   6.965  16.910  0.00  0.00    +0.000 C 
ATOM     40  C   UNL     1      23.262   8.696  17.956  0.00  0.00    +0.000 C 
ATOM     41  C   UNL     1      20.668   6.423  16.547  0.00  0.00    +0.000 C 
ENDBRANCH  31  36
ENDBRANCH  30  31
ENDBRANCH   8  30
TORSDOF 9
ENDMDL
MODEL 6
REMARK minimizedAffinity -7.53696966
REMARK minimizedRMSD -1
REMARK  Name = 88420547
REMARK  11 active torsions:
REMARK  status: ('A' for Active; 'I' for Inactive)
REMARK    1  A    between atoms: S_2  and  C_23
REMARK    2  A    between atoms: S_2  and  C_28
REMARK    3  A    between atoms: O_6  and  C_24
REMARK    4  A    between atoms: O_9  and  N_14
REMARK    5  A    between atoms: O_9  and  C_37
REMARK    6  A    between atoms: N_11  and  CA_18
REMARK    7  A    between atoms: N_12  and  C_33
REMARK    8  A    between atoms: CA_20  and  C_24
REMARK    9  A    between atoms: C_21  and  C_23
REMARK   10  A    between atoms: C_25  and  C_26
REMARK   11  A    between atoms: C_26  and  C_30
REMARK                            x       y       z     vdW  Elec       q    Type
REMARK                         _______ _______ _______ _____ _____    ______ ____
ROOT
ATOM      1  S   UNL     1      13.381   8.290  23.956  0.00  0.00    +0.000 S 
ATOM      2  O   UNL     1      15.135   4.000  23.495  0.00  0.00    +0.000 OA
ATOM      3  N   UNL     1      14.736   6.254  22.924  0.00  0.00    +0.000 N 
ATOM      4  C   UNL     1      13.376   6.758  22.994  0.00  0.00    +0.000 C 
ATOM      5  CA  UNL     1      13.041   5.463  23.777  0.00  0.00    +0.000 C 
ATOM      6  C   UNL     1      14.478   5.009  23.381  0.00  0.00    +0.000 C 
ATOM      7  CA  UNL     1      15.791   6.988  22.485  0.00  0.00    +0.000 C 
ATOM      8  C   UNL     1      15.712   8.335  22.360  0.00  0.00    +0.000 C 
ATOM      9  C   UNL     1      14.492   9.148  22.789  0.00  0.00    +0.000 C 
ENDROOT
BRANCH   5  11
ATOM     10  O   UNL     1      11.759   3.046  24.873  0.00  0.00    +0.000 OA
ATOM     11  N   UNL     1      11.976   4.665  23.186  0.00  0.00    +0.000 N 
ATOM     12  C   UNL     1      11.448   3.537  23.800  0.00  0.00    +0.000 C 
ATOM     13  H   UNL     1      10.840   7.108  24.098  0.00  0.00    +0.000 HD
BRANCH  12  15
ATOM     14  N   UNL     1      10.644   2.196  21.934  0.00  0.00    +0.000 NA
ATOM     15  C   UNL     1      10.354   2.881  22.999  0.00  0.00    +0.000 C 
BRANCH  15  19
ATOM     16  S   UNL     1       6.672   2.646  24.502  0.00  0.00    +0.000 S 
ATOM     17  N   UNL     1       8.230   4.172  23.113  0.00  0.00    +0.000 NA
ATOM     18  N   UNL     1       6.054   5.021  23.478  0.00  0.00    +0.000 N 
ATOM     19  C   UNL     1       8.944   3.038  23.446  0.00  0.00    +0.000 A 
ATOM     20  C   UNL     1       8.269   2.098  24.195  0.00  0.00    +0.000 A 
ATOM     21  C   UNL     1       7.019   4.075  23.618  0.00  0.00    +0.000 A 
ATOM     22  H   UNL     1       8.618   5.278  19.751  0.00  0.00    +0.000 HD
ATOM     23  H   UNL     1       8.618   5.278  19.751  0.00  0.00    +0.000 HD
ENDBRANCH  15  19
BRANCH  14  24
ATOM     24  O   UNL     1      12.024   2.180  21.686  0.00  0.00    +0.000 OA
ATOM     25  C   UNL     1      12.440   0.825  21.602  0.00  0.00    +0.000 C 
ENDBRANCH  14  24
ENDBRANCH  12  15
ENDBRANCH   5  11
BRANCH   7  27
ATOM     26  OXT UNL     1      17.955   6.154  23.006  0.00  0.00    +0.000 OA
ATOM     27  C   UNL     1      17.041   6.264  22.213  0.00  0.00    +0.000 C 
BRANCH  27  28
ATOM     28  O   UNL     1      17.002   5.756  20.966  0.00  0.00    +0.000 OA
ATOM     29  H   UNL     1      13.663   6.683  20.428  0.00  0.00    +0.000 HD
ENDBRANCH  27  28
ENDBRANCH   7  27
BRANCH   8  30
ATOM     30  C   UNL     1      16.810   9.210  21.804  0.00  0.00    +0.000 C 
BRANCH  30  31
ATOM     31  S   UNL     1      16.430   9.630  20.096  0.00  0.00    +0.000 S 
BRANCH  31  36
ATOM     32  S   UNL     1      19.360   9.062  20.446  0.00  0.00    +0.000 S 
ATOM     33  N   UNL     1      21.725   8.707  18.981  0.00  0.00    +0.000 N 
ATOM     34  N   UNL     1      18.250   9.588  18.130  0.00  0.00    +0.000 NA
ATOM     35  C   UNL     1      20.496   9.510  19.097  0.00  0.00    +0.000 C 
ATOM     36  C   UNL     1      18.013   9.446  19.396  0.00  0.00    +0.000 C 
ATOM     37  C   UNL     1      19.585   9.346  17.885  0.00  0.00    +0.000 C 
ATOM     38  C   UNL     1      20.031   8.841  16.722  0.00  0.00    +0.000 C 
ATOM     39  C   UNL     1      22.148   8.302  17.718  0.00  0.00    +0.000 C 
ATOM     40  C   UNL     1      22.664   8.741  20.097  0.00  0.00    +0.000 C 
ATOM     41  C   UNL     1      21.396   8.383  16.612  0.00  0.00    +0.000 C 
ENDBRANCH  31  36
ENDBRANCH  30  31
ENDBRANCH   8  30
TORSDOF 9
ENDMDL
MODEL 7
REMARK minimizedAffinity -7.52646637
REMARK minimizedRMSD -1
REMARK  Name = 88420547
REMARK  11 active torsions:
REMARK  status: ('A' for Active; 'I' for Inactive)
REMARK    1  A    between atoms: S_2  and  C_23
REMARK    2  A    between atoms: S_2  and  C_28
REMARK    3  A    between atoms: O_6  and  C_24
REMARK    4  A    between atoms: O_9  and  N_14
REMARK    5  A    between atoms: O_9  and  C_37
REMARK    6  A    between atoms: N_11  and  CA_18
REMARK    7  A    between atoms: N_12  and  C_33
REMARK    8  A    between atoms: CA_20  and  C_24
REMARK    9  A    between atoms: C_21  and  C_23
REMARK   10  A    between atoms: C_25  and  C_26
REMARK   11  A    between atoms: C_26  and  C_30
REMARK                            x       y       z     vdW  Elec       q    Type
REMARK                         _______ _______ _______ _____ _____    ______ ____
ROOT
ATOM      1  S   UNL     1      18.318   5.928  19.364  0.00  0.00    +0.000 S 
ATOM      2  O   UNL     1      15.583   9.666  19.846  0.00  0.00    +0.000 OA
ATOM      3  N   UNL     1      17.605   8.457  19.740  0.00  0.00    +0.000 N 
ATOM      4  C   UNL     1      17.710   7.214  20.483  0.00  0.00    +0.000 C 
ATOM      5  CA  UNL     1      16.172   7.298  20.652  0.00  0.00    +0.000 C 
ATOM      6  C   UNL     1      16.317   8.726  20.045  0.00  0.00    +0.000 C 
ATOM      7  CA  UNL     1      18.629   9.004  19.035  0.00  0.00    +0.000 C 
ATOM      8  C   UNL     1      19.735   8.286  18.723  0.00  0.00    +0.000 C 
ATOM      9  C   UNL     1      19.888   6.800  19.038  0.00  0.00    +0.000 C 
ENDROOT
BRANCH   5  11
ATOM     10  O   UNL     1      13.847   5.884  21.784  0.00  0.00    +0.000 OA
ATOM     11  N   UNL     1      15.720   7.278  22.036  0.00  0.00    +0.000 N 
ATOM     12  C   UNL     1      14.601   6.570  22.455  0.00  0.00    +0.000 C 
ATOM     13  H   UNL     1      18.079   5.698  21.859  0.00  0.00    +0.000 HD
BRANCH  12  15
ATOM     14  N   UNL     1      14.007   7.847  24.441  0.00  0.00    +0.000 NA
ATOM     15  C   UNL     1      14.335   6.698  23.932  0.00  0.00    +0.000 C 
BRANCH  15  19
ATOM     16  S   UNL     1      15.354   3.433  25.974  0.00  0.00    +0.000 S 
ATOM     17  N   UNL     1      13.391   5.062  25.553  0.00  0.00    +0.000 NA
ATOM     18  N   UNL     1      12.932   3.304  27.065  0.00  0.00    +0.000 N 
ATOM     19  C   UNL     1      14.461   5.491  24.791  0.00  0.00    +0.000 A 
ATOM     20  C   UNL     1      15.611   4.736  24.888  0.00  0.00    +0.000 A 
ATOM     21  C   UNL     1      13.748   3.985  26.218  0.00  0.00    +0.000 A 
ATOM     22  H   UNL     1      10.238   5.110  23.900  0.00  0.00    +0.000 HD
ATOM     23  H   UNL     1      10.238   5.110  23.900  0.00  0.00    +0.000 HD
ENDBRANCH  15  19
BRANCH  14  24
ATOM     24  O   UNL     1      13.953   8.851  23.464  0.00  0.00    +0.000 OA
ATOM     25  C   UNL     1      12.607   8.968  23.027  0.00  0.00    +0.000 C 
ENDBRANCH  14  24
ENDBRANCH  12  15
ENDBRANCH   5  11
BRANCH   7  27
ATOM     26  OXT UNL     1      18.831  11.368  19.182  0.00  0.00    +0.000 OA
ATOM     27  C   UNL     1      18.455  10.387  18.570  0.00  0.00    +0.000 C 
BRANCH  27  28
ATOM     28  O   UNL     1      17.825  10.383  17.380  0.00  0.00    +0.000 OA
ATOM     29  H   UNL     1      17.921   6.892  17.062  0.00  0.00    +0.000 HD
ENDBRANCH  27  28
ENDBRANCH   7  27
BRANCH   8  30
ATOM     30  C   UNL     1      20.946   8.843  18.015  0.00  0.00    +0.000 C 
BRANCH  30  31
ATOM     31  S   UNL     1      22.296   9.023  19.193  0.00  0.00    +0.000 S 
BRANCH  31  36
ATOM     32  S   UNL     1      25.152   9.280  18.292  0.00  0.00    +0.000 S 
ATOM     33  N   UNL     1      27.077   8.018  16.691  0.00  0.00    +0.000 N 
ATOM     34  N   UNL     1      23.511   7.436  17.410  0.00  0.00    +0.000 NA
ATOM     35  C   UNL     1      25.662   8.415  16.775  0.00  0.00    +0.000 C 
ATOM     36  C   UNL     1      23.613   8.449  18.210  0.00  0.00    +0.000 C 
ATOM     37  C   UNL     1      24.728   7.210  16.802  0.00  0.00    +0.000 C 
ATOM     38  C   UNL     1      25.132   5.987  16.417  0.00  0.00    +0.000 C 
ATOM     39  C   UNL     1      27.395   6.756  16.199  0.00  0.00    +0.000 C 
ATOM     40  C   UNL     1      28.079   9.080  16.702  0.00  0.00    +0.000 C 
ATOM     41  C   UNL     1      26.502   5.774  16.014  0.00  0.00    +0.000 C 
ENDBRANCH  31  36
ENDBRANCH  30  31
ENDBRANCH   8  30
TORSDOF 9
ENDMDL
MODEL 8
REMARK minimizedAffinity -7.50768185
REMARK minimizedRMSD -1
REMARK  Name = 88420547
REMARK  11 active torsions:
REMARK  status: ('A' for Active; 'I' for Inactive)
REMARK    1  A    between atoms: S_2  and  C_23
REMARK    2  A    between atoms: S_2  and  C_28
REMARK    3  A    between atoms: O_6  and  C_24
REMARK    4  A    between atoms: O_9  and  N_14
REMARK    5  A    between atoms: O_9  and  C_37
REMARK    6  A    between atoms: N_11  and  CA_18
REMARK    7  A    between atoms: N_12  and  C_33
REMARK    8  A    between atoms: CA_20  and  C_24
REMARK    9  A    between atoms: C_21  and  C_23
REMARK   10  A    between atoms: C_25  and  C_26
REMARK   11  A    between atoms: C_26  and  C_30
REMARK                            x       y       z     vdW  Elec       q    Type
REMARK                         _______ _______ _______ _____ _____    ______ ____
ROOT
ATOM      1  S   UNL     1      14.977   3.022  22.007  0.00  0.00    +0.000 S 
ATOM      2  O   UNL     1      12.055   6.622  22.440  0.00  0.00    +0.000 OA
ATOM      3  N   UNL     1      13.930   5.279  22.932  0.00  0.00    +0.000 N 
ATOM      4  C   UNL     1      13.745   3.843  23.046  0.00  0.00    +0.000 C 
ATOM      5  CA  UNL     1      12.353   4.070  22.403  0.00  0.00    +0.000 C 
ATOM      6  C   UNL     1      12.658   5.586  22.595  0.00  0.00    +0.000 C 
ATOM      7  CA  UNL     1      15.113   5.907  23.156  0.00  0.00    +0.000 C 
ATOM      8  C   UNL     1      16.279   5.220  23.211  0.00  0.00    +0.000 C 
ATOM      9  C   UNL     1      16.386   3.722  22.932  0.00  0.00    +0.000 C 
ENDROOT
BRANCH   5  11
ATOM     10  O   UNL     1      10.225   2.199  21.591  0.00  0.00    +0.000 OA
ATOM     11  N   UNL     1      11.238   3.577  23.200  0.00  0.00    +0.000 N 
ATOM     12  C   UNL     1      10.290   2.692  22.706  0.00  0.00    +0.000 C 
ATOM     13  H   UNL     1      13.611   2.317  24.135  0.00  0.00    +0.000 HD
BRANCH  12  15
ATOM     14  N   UNL     1       9.357   1.240  24.423  0.00  0.00    +0.000 NA
ATOM     15  C   UNL     1       9.236   2.323  23.717  0.00  0.00    +0.000 C 
BRANCH  15  19
ATOM     16  S   UNL     1       6.225   4.920  23.482  0.00  0.00    +0.000 S 
ATOM     17  N   UNL     1       7.363   3.235  25.078  0.00  0.00    +0.000 NA
ATOM     18  N   UNL     1       5.490   4.363  25.976  0.00  0.00    +0.000 N 
ATOM     19  C   UNL     1       8.058   3.216  23.885  0.00  0.00    +0.000 A 
ATOM     20  C   UNL     1       7.592   4.061  22.901  0.00  0.00    +0.000 A 
ATOM     21  C   UNL     1       6.374   4.097  24.979  0.00  0.00    +0.000 A 
ATOM     22  H   UNL     1       9.381   3.245  28.012  0.00  0.00    +0.000 HD
ATOM     23  H   UNL     1       9.381   3.245  28.012  0.00  0.00    +0.000 HD
ENDBRANCH  15  19
BRANCH  14  24
ATOM     24  O   UNL     1      10.531   0.541  24.105  0.00  0.00    +0.000 OA
ATOM     25  C   UNL     1      10.175  -0.796  23.788  0.00  0.00    +0.000 C 
ENDBRANCH  14  24
ENDBRANCH  12  15
ENDBRANCH   5  11
BRANCH   7  27
ATOM     26  OXT UNL     1      14.911   7.974  24.312  0.00  0.00    +0.000 OA
ATOM     27  C   UNL     1      15.079   7.372  23.270  0.00  0.00    +0.000 C 
BRANCH  27  28
ATOM     28  O   UNL     1      15.263   7.920  22.053  0.00  0.00    +0.000 OA
ATOM     29  H   UNL     1      15.938   4.850  20.500  0.00  0.00    +0.000 HD
ENDBRANCH  27  28
ENDBRANCH   7  27
BRANCH   8  30
ATOM     30  C   UNL     1      17.621   5.833  23.535  0.00  0.00    +0.000 C 
BRANCH  30  31
ATOM     31  S   UNL     1      18.851   5.227  22.369  0.00  0.00    +0.000 S 
BRANCH  31  36
ATOM     32  S   UNL     1      19.963   6.550  19.910  0.00  0.00    +0.000 S 
ATOM     33  N   UNL     1      20.011   9.010  18.563  0.00  0.00    +0.000 N 
ATOM     34  N   UNL     1      18.610   7.825  21.759  0.00  0.00    +0.000 NA
ATOM     35  C   UNL     1      20.089   8.365  19.885  0.00  0.00    +0.000 C 
ATOM     36  C   UNL     1      19.070   6.665  21.411  0.00  0.00    +0.000 C 
ATOM     37  C   UNL     1      18.916   8.748  20.781  0.00  0.00    +0.000 C 
ATOM     38  C   UNL     1      18.142   9.817  20.524  0.00  0.00    +0.000 C 
ATOM     39  C   UNL     1      19.246  10.164  18.421  0.00  0.00    +0.000 C 
ATOM     40  C   UNL     1      21.054   8.691  17.594  0.00  0.00    +0.000 C 
ATOM     41  C   UNL     1      18.377  10.608  19.339  0.00  0.00    +0.000 C 
ENDBRANCH  31  36
ENDBRANCH  30  31
ENDBRANCH   8  30
TORSDOF 9
ENDMDL
MODEL 9
REMARK minimizedAffinity -7.50026798
REMARK minimizedRMSD -1
REMARK  Name = 88420547
REMARK  11 active torsions:
REMARK  status: ('A' for Active; 'I' for Inactive)
REMARK    1  A    between atoms: S_2  and  C_23
REMARK    2  A    between atoms: S_2  and  C_28
REMARK    3  A    between atoms: O_6  and  C_24
REMARK    4  A    between atoms: O_9  and  N_14
REMARK    5  A    between atoms: O_9  and  C_37
REMARK    6  A    between atoms: N_11  and  CA_18
REMARK    7  A    between atoms: N_12  and  C_33
REMARK    8  A    between atoms: CA_20  and  C_24
REMARK    9  A    between atoms: C_21  and  C_23
REMARK   10  A    between atoms: C_25  and  C_26
REMARK   11  A    between atoms: C_26  and  C_30
REMARK                            x       y       z     vdW  Elec       q    Type
REMARK                         _______ _______ _______ _____ _____    ______ ____
ROOT
ATOM      1  S   UNL     1      14.861   4.561  20.497  0.00  0.00    +0.000 S 
ATOM      2  O   UNL     1      18.071   6.033  23.533  0.00  0.00    +0.000 OA
ATOM      3  N   UNL     1      15.920   5.794  22.596  0.00  0.00    +0.000 N 
ATOM      4  C   UNL     1      15.762   5.981  21.165  0.00  0.00    +0.000 C 
ATOM      5  CA  UNL     1      17.307   5.908  21.082  0.00  0.00    +0.000 C 
ATOM      6  C   UNL     1      17.260   5.959  22.639  0.00  0.00    +0.000 C 
ATOM      7  CA  UNL     1      14.888   5.551  23.444  0.00  0.00    +0.000 C 
ATOM      8  C   UNL     1      13.671   5.168  22.986  0.00  0.00    +0.000 C 
ATOM      9  C   UNL     1      13.380   4.882  21.514  0.00  0.00    +0.000 C 
ENDROOT
BRANCH   5  11
ATOM     10  O   UNL     1      18.415   6.143  18.361  0.00  0.00    +0.000 OA
ATOM     11  N   UNL     1      17.929   7.070  20.464  0.00  0.00    +0.000 N 
ATOM     12  C   UNL     1      18.419   7.062  19.165  0.00  0.00    +0.000 C 
ATOM     13  H   UNL     1      15.132   7.558  20.636  0.00  0.00    +0.000 HD
BRANCH  12  15
ATOM     14  N   UNL     1      18.266   9.441  18.668  0.00  0.00    +0.000 NA
ATOM     15  C   UNL     1      19.013   8.381  18.745  0.00  0.00    +0.000 C 
BRANCH  15  19
ATOM     16  S   UNL     1      22.974   8.760  18.558  0.00  0.00    +0.000 S 
ATOM     17  N   UNL     1      20.903   8.129  17.145  0.00  0.00    +0.000 NA
ATOM     18  N   UNL     1      22.969   8.027  16.001  0.00  0.00    +0.000 N 
ATOM     19  C   UNL     1      20.462   8.444  18.416  0.00  0.00    +0.000 A 
ATOM     20  C   UNL     1      21.437   8.810  19.319  0.00  0.00    +0.000 A 
ATOM     21  C   UNL     1      22.211   8.260  17.105  0.00  0.00    +0.000 A 
ATOM     22  H   UNL     1      18.947   9.465  14.486  0.00  0.00    +0.000 HD
ATOM     23  H   UNL     1      18.947   9.465  14.486  0.00  0.00    +0.000 HD
ENDBRANCH  15  19
BRANCH  14  24
ATOM     24  O   UNL     1      16.934   9.164  19.010  0.00  0.00    +0.000 OA
ATOM     25  C   UNL     1      16.412  10.292  19.694  0.00  0.00    +0.000 C 
ENDBRANCH  14  24
ENDBRANCH  12  15
ENDBRANCH   5  11
BRANCH   7  27
ATOM     26  OXT UNL     1      15.601   4.751  25.566  0.00  0.00    +0.000 OA
ATOM     27  C   UNL     1      15.167   5.657  24.883  0.00  0.00    +0.000 C 
BRANCH  27  28
ATOM     28  O   UNL     1      14.866   6.901  25.306  0.00  0.00    +0.000 OA
ATOM     29  H   UNL     1      14.210   8.106  22.079  0.00  0.00    +0.000 HD
ENDBRANCH  27  28
ENDBRANCH   7  27
BRANCH   8  30
ATOM     30  C   UNL     1      12.455   4.958  23.856  0.00  0.00    +0.000 C 
BRANCH  30  31
ATOM     31  S   UNL     1      12.095   3.197  23.962  0.00  0.00    +0.000 S 
BRANCH  31  36
ATOM     32  S   UNL     1       9.401   1.969  24.480  0.00  0.00    +0.000 S 
ATOM     33  N   UNL     1       6.661   2.429  24.096  0.00  0.00    +0.000 N 
ATOM     34  N   UNL     1       9.751   4.182  23.117  0.00  0.00    +0.000 NA
ATOM     35  C   UNL     1       7.991   2.519  23.469  0.00  0.00    +0.000 C 
ATOM     36  C   UNL     1      10.365   3.247  23.770  0.00  0.00    +0.000 C 
ATOM     37  C   UNL     1       8.391   3.960  23.174  0.00  0.00    +0.000 C 
ATOM     38  C   UNL     1       7.490   4.958  23.144  0.00  0.00    +0.000 C 
ATOM     39  C   UNL     1       5.768   3.484  23.935  0.00  0.00    +0.000 C 
ATOM     40  C   UNL     1       6.178   1.104  24.470  0.00  0.00    +0.000 C 
ATOM     41  C   UNL     1       6.105   4.687  23.451  0.00  0.00    +0.000 C 
ENDBRANCH  31  36
ENDBRANCH  30  31
ENDBRANCH   8  30
TORSDOF 9
ENDMDL
MODEL 10
REMARK minimizedAffinity -7.44211197
REMARK minimizedRMSD -1
REMARK  Name = 88420547
REMARK  11 active torsions:
REMARK  status: ('A' for Active; 'I' for Inactive)
REMARK    1  A    between atoms: S_2  and  C_23
REMARK    2  A    between atoms: S_2  and  C_28
REMARK    3  A    between atoms: O_6  and  C_24
REMARK    4  A    between atoms: O_9  and  N_14
REMARK    5  A    between atoms: O_9  and  C_37
REMARK    6  A    between atoms: N_11  and  CA_18
REMARK    7  A    between atoms: N_12  and  C_33
REMARK    8  A    between atoms: CA_20  and  C_24
REMARK    9  A    between atoms: C_21  and  C_23
REMARK   10  A    between atoms: C_25  and  C_26
REMARK   11  A    between atoms: C_26  and  C_30
REMARK                            x       y       z     vdW  Elec       q    Type
REMARK                         _______ _______ _______ _____ _____    ______ ____
ROOT
ATOM      1  S   UNL     1      19.410   6.652  21.599  0.00  0.00    +0.000 S 
ATOM      2  O   UNL     1      19.128  10.833  19.568  0.00  0.00    +0.000 OA
ATOM      3  N   UNL     1      18.407   8.683  20.216  0.00  0.00    +0.000 N 
ATOM      4  C   UNL     1      19.315   7.564  20.040  0.00  0.00    +0.000 C 
ATOM      5  CA  UNL     1      20.420   8.624  19.801  0.00  0.00    +0.000 C 
ATOM      6  C   UNL     1      19.247   9.650  19.787  0.00  0.00    +0.000 C 
ATOM      7  CA  UNL     1      17.135   8.558  20.675  0.00  0.00    +0.000 C 
ATOM      8  C   UNL     1      16.712   7.424  21.285  0.00  0.00    +0.000 C 
ATOM      9  C   UNL     1      17.631   6.246  21.598  0.00  0.00    +0.000 C 
ENDROOT
BRANCH   5  11
ATOM     10  O   UNL     1      22.239   6.470  18.941  0.00  0.00    +0.000 OA
ATOM     11  N   UNL     1      21.113   8.489  18.527  0.00  0.00    +0.000 N 
ATOM     12  C   UNL     1      21.952   7.422  18.234  0.00  0.00    +0.000 C 
ATOM     13  H   UNL     1      18.357   7.938  18.090  0.00  0.00    +0.000 HD
BRANCH  12  15
ATOM     14  N   UNL     1      21.817   7.270  15.808  0.00  0.00    +0.000 NA
ATOM     15  C   UNL     1      22.551   7.499  16.854  0.00  0.00    +0.000 C 
BRANCH  15  19
ATOM     16  S   UNL     1      26.194   9.087  16.581  0.00  0.00    +0.000 S 
ATOM     17  N   UNL     1      24.923   6.838  16.492  0.00  0.00    +0.000 NA
ATOM     18  N   UNL     1      27.262   6.684  16.188  0.00  0.00    +0.000 N 
ATOM     19  C   UNL     1      23.994   7.835  16.715  0.00  0.00    +0.000 A 
ATOM     20  C   UNL     1      24.492   9.118  16.794  0.00  0.00    +0.000 A 
ATOM     21  C   UNL     1      26.117   7.383  16.405  0.00  0.00    +0.000 A 
ATOM     22  H   UNL     1      23.965   4.379  14.102  0.00  0.00    +0.000 HD
ATOM     23  H   UNL     1      23.965   4.379  14.102  0.00  0.00    +0.000 HD
ENDBRANCH  15  19
BRANCH  14  24
ATOM     24  O   UNL     1      20.494   6.965  16.158  0.00  0.00    +0.000 OA
ATOM     25  C   UNL     1      20.222   5.636  15.739  0.00  0.00    +0.000 C 
ENDBRANCH  14  24
ENDBRANCH  12  15
ENDBRANCH   5  11
BRANCH   7  27
ATOM     26  OXT UNL     1      15.580   9.969  19.560  0.00  0.00    +0.000 OA
ATOM     27  C   UNL     1      16.258   9.730  20.539  0.00  0.00    +0.000 C 
BRANCH  27  28
ATOM     28  O   UNL     1      16.331  10.476  21.659  0.00  0.00    +0.000 OA
ATOM     29  H   UNL     1      18.310   8.145  23.377  0.00  0.00    +0.000 HD
ENDBRANCH  27  28
ENDBRANCH   7  27
BRANCH   8  30
ATOM     30  C   UNL     1      15.296   7.179  21.749  0.00  0.00    +0.000 C 
BRANCH  30  31
ATOM     31  S   UNL     1      15.176   7.532  23.510  0.00  0.00    +0.000 S 
BRANCH  31  36
ATOM     32  S   UNL     1      13.511   5.140  22.773  0.00  0.00    +0.000 S 
ATOM     33  N   UNL     1      12.056   3.034  23.916  0.00  0.00    +0.000 N 
ATOM     34  N   UNL     1      13.873   5.953  25.239  0.00  0.00    +0.000 NA
ATOM     35  C   UNL     1      12.360   4.471  24.013  0.00  0.00    +0.000 C 
ATOM     36  C   UNL     1      14.169   6.199  24.002  0.00  0.00    +0.000 C 
ATOM     37  C   UNL     1      13.094   4.818  25.304  0.00  0.00    +0.000 C 
ATOM     38  C   UNL     1      13.109   3.986  26.360  0.00  0.00    +0.000 C 
ATOM     39  C   UNL     1      12.014   2.274  25.082  0.00  0.00    +0.000 C 
ATOM     40  C   UNL     1      11.392   2.563  22.705  0.00  0.00    +0.000 C 
ATOM     41  C   UNL     1      12.464   2.697  26.271  0.00  0.00    +0.000 C 
ENDBRANCH  31  36
ENDBRANCH  30  31
ENDBRANCH   8  30
TORSDOF 9
ENDMDL
MODEL 11
REMARK minimizedAffinity -7.3286128
REMARK minimizedRMSD -1
REMARK  Name = 88420547
REMARK  11 active torsions:
REMARK  status: ('A' for Active; 'I' for Inactive)
REMARK    1  A    between atoms: S_2  and  C_23
REMARK    2  A    between atoms: S_2  and  C_28
REMARK    3  A    between atoms: O_6  and  C_24
REMARK    4  A    between atoms: O_9  and  N_14
REMARK    5  A    between atoms: O_9  and  C_37
REMARK    6  A    between atoms: N_11  and  CA_18
REMARK    7  A    between atoms: N_12  and  C_33
REMARK    8  A    between atoms: CA_20  and  C_24
REMARK    9  A    between atoms: C_21  and  C_23
REMARK   10  A    between atoms: C_25  and  C_26
REMARK   11  A    between atoms: C_26  and  C_30
REMARK                            x       y       z     vdW  Elec       q    Type
REMARK                         _______ _______ _______ _____ _____    ______ ____
ROOT
ATOM      1  S   UNL     1      17.831   9.507  19.346  0.00  0.00    +0.000 S 
ATOM      2  O   UNL     1      17.995   4.919  18.564  0.00  0.00    +0.000 OA
ATOM      3  N   UNL     1      17.961   6.902  19.840  0.00  0.00    +0.000 N 
ATOM      4  C   UNL     1      18.826   7.999  19.441  0.00  0.00    +0.000 C 
ATOM      5  CA  UNL     1      19.026   7.230  18.111  0.00  0.00    +0.000 C 
ATOM      6  C   UNL     1      18.271   6.068  18.824  0.00  0.00    +0.000 C 
ATOM      7  CA  UNL     1      17.176   6.925  20.947  0.00  0.00    +0.000 C 
ATOM      8  C   UNL     1      16.911   8.081  21.603  0.00  0.00    +0.000 C 
ATOM      9  C   UNL     1      17.375   9.450  21.112  0.00  0.00    +0.000 C 
ENDROOT
BRANCH   5  11
ATOM     10  O   UNL     1      20.427   7.620  15.548  0.00  0.00    +0.000 OA
ATOM     11  N   UNL     1      20.416   6.935  17.794  0.00  0.00    +0.000 N 
ATOM     12  C   UNL     1      20.969   7.162  16.541  0.00  0.00    +0.000 C 
ATOM     13  H   UNL     1      20.365   9.237  19.463  0.00  0.00    +0.000 HD
BRANCH  12  15
ATOM     14  N   UNL     1      22.767   5.573  16.131  0.00  0.00    +0.000 NA
ATOM     15  C   UNL     1      22.424   6.783  16.455  0.00  0.00    +0.000 C 
BRANCH  15  19
ATOM     16  S   UNL     1      25.021   9.407  17.952  0.00  0.00    +0.000 S 
ATOM     17  N   UNL     1      24.121   8.450  15.725  0.00  0.00    +0.000 NA
ATOM     18  N   UNL     1      25.792  10.108  15.505  0.00  0.00    +0.000 N 
ATOM     19  C   UNL     1      23.454   7.814  16.753  0.00  0.00    +0.000 A 
ATOM     20  C   UNL     1      23.805   8.199  18.029  0.00  0.00    +0.000 A 
ATOM     21  C   UNL     1      24.972   9.311  16.240  0.00  0.00    +0.000 A 
ATOM     22  H   UNL     1      22.080   9.462  12.989  0.00  0.00    +0.000 HD
ATOM     23  H   UNL     1      22.080   9.462  12.989  0.00  0.00    +0.000 HD
ENDBRANCH  15  19
BRANCH  14  24
ATOM     24  O   UNL     1      21.648   4.760  15.900  0.00  0.00    +0.000 OA
ATOM     25  C   UNL     1      22.078   3.610  15.187  0.00  0.00    +0.000 C 
ENDBRANCH  14  24
ENDBRANCH  12  15
ENDBRANCH   5  11
BRANCH   7  27
ATOM     26  OXT UNL     1      17.003   4.952  22.263  0.00  0.00    +0.000 OA
ATOM     27  C   UNL     1      16.575   5.650  21.365  0.00  0.00    +0.000 C 
BRANCH  27  28
ATOM     28  O   UNL     1      15.494   5.395  20.602  0.00  0.00    +0.000 OA
ATOM     29  H   UNL     1      15.595   8.503  18.982  0.00  0.00    +0.000 HD
ENDBRANCH  27  28
ENDBRANCH   7  27
BRANCH   8  30
ATOM     30  C   UNL     1      16.117   8.177  22.884  0.00  0.00    +0.000 C 
BRANCH  30  31
ATOM     31  S   UNL     1      14.372   8.381  22.489  0.00  0.00    +0.000 S 
BRANCH  31  36
ATOM     32  S   UNL     1      14.416   6.173  24.528  0.00  0.00    +0.000 S 
ATOM     33  N   UNL     1      13.138   3.768  25.198  0.00  0.00    +0.000 N 
ATOM     34  N   UNL     1      12.870   6.163  22.411  0.00  0.00    +0.000 NA
ATOM     35  C   UNL     1      13.674   4.571  24.086  0.00  0.00    +0.000 C 
ATOM     36  C   UNL     1      13.771   6.844  23.046  0.00  0.00    +0.000 C 
ATOM     37  C   UNL     1      12.582   5.016  23.119  0.00  0.00    +0.000 C 
ATOM     38  C   UNL     1      11.373   4.429  23.092  0.00  0.00    +0.000 C 
ATOM     39  C   UNL     1      11.912   3.130  25.038  0.00  0.00    +0.000 C 
ATOM     40  C   UNL     1      14.077   3.315  26.219  0.00  0.00    +0.000 C 
ATOM     41  C   UNL     1      11.059   3.381  24.034  0.00  0.00    +0.000 C 
ENDBRANCH  31  36
ENDBRANCH  30  31
ENDBRANCH   8  30
TORSDOF 9
ENDMDL
MODEL 12
REMARK minimizedAffinity -7.24027967
REMARK minimizedRMSD -1
REMARK  Name = 88420547
REMARK  11 active torsions:
REMARK  status: ('A' for Active; 'I' for Inactive)
REMARK    1  A    between atoms: S_2  and  C_23
REMARK    2  A    between atoms: S_2  and  C_28
REMARK    3  A    between atoms: O_6  and  C_24
REMARK    4  A    between atoms: O_9  and  N_14
REMARK    5  A    between atoms: O_9  and  C_37
REMARK    6  A    between atoms: N_11  and  CA_18
REMARK    7  A    between atoms: N_12  and  C_33
REMARK    8  A    between atoms: CA_20  and  C_24
REMARK    9  A    between atoms: C_21  and  C_23
REMARK   10  A    between atoms: C_25  and  C_26
REMARK   11  A    between atoms: C_26  and  C_30
REMARK                            x       y       z     vdW  Elec       q    Type
REMARK                         _______ _______ _______ _____ _____    ______ ____
ROOT
ATOM      1  S   UNL     1      14.441   2.363  21.157  0.00  0.00    +0.000 S 
ATOM      2  O   UNL     1      15.355   4.392  25.249  0.00  0.00    +0.000 OA
ATOM      3  N   UNL     1      14.051   3.314  23.605  0.00  0.00    +0.000 N 
ATOM      4  C   UNL     1      14.135   3.785  22.234  0.00  0.00    +0.000 C 
ATOM      5  CA  UNL     1      15.386   4.579  22.686  0.00  0.00    +0.000 C 
ATOM      6  C   UNL     1      14.974   4.152  24.126  0.00  0.00    +0.000 C 
ATOM      7  CA  UNL     1      13.215   2.326  24.014  0.00  0.00    +0.000 C 
ATOM      8  C   UNL     1      12.610   1.499  23.126  0.00  0.00    +0.000 C 
ATOM      9  C   UNL     1      12.884   1.534  21.624  0.00  0.00    +0.000 C 
ENDROOT
BRANCH   5  11
ATOM     10  O   UNL     1      17.329   6.664  23.439  0.00  0.00    +0.000 OA
ATOM     11  N   UNL     1      15.306   6.013  22.440  0.00  0.00    +0.000 N 
ATOM     12  C   UNL     1      16.290   6.904  22.845  0.00  0.00    +0.000 C 
ATOM     13  H   UNL     1      15.868   4.727  19.965  0.00  0.00    +0.000 HD
BRANCH  12  15
ATOM     14  N   UNL     1      15.087   9.002  23.131  0.00  0.00    +0.000 NA
ATOM     15  C   UNL     1      15.987   8.333  22.475  0.00  0.00    +0.000 C 
BRANCH  15  19
ATOM     16  S   UNL     1      18.536   9.596  19.687  0.00  0.00    +0.000 S 
ATOM     17  N   UNL     1      16.104   9.869  20.520  0.00  0.00    +0.000 NA
ATOM     18  N   UNL     1      16.673  11.175  18.634  0.00  0.00    +0.000 N 
ATOM     19  C   UNL     1      16.729   8.955  21.346  0.00  0.00    +0.000 A 
ATOM     20  C   UNL     1      18.048   8.680  21.052  0.00  0.00    +0.000 A 
ATOM     21  C   UNL     1      16.961  10.273  19.608  0.00  0.00    +0.000 A 
ATOM     22  H   UNL     1      14.081  12.282  22.183  0.00  0.00    +0.000 HD
ATOM     23  H   UNL     1      14.081  12.282  22.183  0.00  0.00    +0.000 HD
ENDBRANCH  15  19
BRANCH  14  24
ATOM     24  O   UNL     1      14.503   8.231  24.146  0.00  0.00    +0.000 OA
ATOM     25  C   UNL     1      13.098   8.229  23.944  0.00  0.00    +0.000 C 
ENDBRANCH  14  24
ENDBRANCH  12  15
ENDBRANCH   5  11
BRANCH   7  27
ATOM     26  OXT UNL     1      13.758   1.452  26.157  0.00  0.00    +0.000 OA
ATOM     27  C   UNL     1      13.046   2.151  25.463  0.00  0.00    +0.000 C 
BRANCH  27  28
ATOM     28  O   UNL     1      11.992   2.880  25.882  0.00  0.00    +0.000 OA
ATOM     29  H   UNL     1      11.507   4.422  22.770  0.00  0.00    +0.000 HD
ENDBRANCH  27  28
ENDBRANCH   7  27
BRANCH   8  30
ATOM     30  C   UNL     1      11.607   0.433  23.495  0.00  0.00    +0.000 C 
BRANCH  30  31
ATOM     31  S   UNL     1      10.579   0.060  22.065  0.00  0.00    +0.000 S 
BRANCH  31  36
ATOM     32  S   UNL     1       7.828   0.694  23.096  0.00  0.00    +0.000 S 
ATOM     33  N   UNL     1       6.053   2.834  23.463  0.00  0.00    +0.000 N 
ATOM     34  N   UNL     1       9.391   2.459  21.948  0.00  0.00    +0.000 NA
ATOM     35  C   UNL     1       7.027   2.230  22.538  0.00  0.00    +0.000 C 
ATOM     36  C   UNL     1       9.305   1.220  22.317  0.00  0.00    +0.000 C 
ATOM     37  C   UNL     1       8.242   3.125  22.317  0.00  0.00    +0.000 C 
ATOM     38  C   UNL     1       8.227   4.434  22.625  0.00  0.00    +0.000 C 
ATOM     39  C   UNL     1       6.067   4.213  23.649  0.00  0.00    +0.000 C 
ATOM     40  C   UNL     1       4.863   2.057  23.793  0.00  0.00    +0.000 C 
ATOM     41  C   UNL     1       7.056   5.018  23.235  0.00  0.00    +0.000 C 
ENDBRANCH  31  36
ENDBRANCH  30  31
ENDBRANCH   8  30
TORSDOF 9
ENDMDL
MODEL 13
REMARK minimizedAffinity -7.23866367
REMARK minimizedRMSD -1
REMARK  Name = 88420547
REMARK  11 active torsions:
REMARK  status: ('A' for Active; 'I' for Inactive)
REMARK    1  A    between atoms: S_2  and  C_23
REMARK    2  A    between atoms: S_2  and  C_28
REMARK    3  A    between atoms: O_6  and  C_24
REMARK    4  A    between atoms: O_9  and  N_14
REMARK    5  A    between atoms: O_9  and  C_37
REMARK    6  A    between atoms: N_11  and  CA_18
REMARK    7  A    between atoms: N_12  and  C_33
REMARK    8  A    between atoms: CA_20  and  C_24
REMARK    9  A    between atoms: C_21  and  C_23
REMARK   10  A    between atoms: C_25  and  C_26
REMARK   11  A    between atoms: C_26  and  C_30
REMARK                            x       y       z     vdW  Elec       q    Type
REMARK                         _______ _______ _______ _____ _____    ______ ____
ROOT
ATOM      1  S   UNL     1      18.390   5.548  21.651  0.00  0.00    +0.000 S 
ATOM      2  O   UNL     1      14.274   6.946  23.323  0.00  0.00    +0.000 OA
ATOM      3  N   UNL     1      16.551   7.126  22.735  0.00  0.00    +0.000 N 
ATOM      4  C   UNL     1      17.453   6.053  23.114  0.00  0.00    +0.000 C 
ATOM      5  CA  UNL     1      16.180   5.226  23.427  0.00  0.00    +0.000 C 
ATOM      6  C   UNL     1      15.416   6.565  23.206  0.00  0.00    +0.000 C 
ATOM      7  CA  UNL     1      16.952   8.265  22.115  0.00  0.00    +0.000 C 
ATOM      8  C   UNL     1      18.173   8.362  21.534  0.00  0.00    +0.000 C 
ATOM      9  C   UNL     1      19.150   7.193  21.435  0.00  0.00    +0.000 C 
ENDROOT
BRANCH   5  11
ATOM     10  O   UNL     1      16.767   2.499  24.380  0.00  0.00    +0.000 OA
ATOM     11  N   UNL     1      16.117   4.718  24.791  0.00  0.00    +0.000 N 
ATOM     12  C   UNL     1      16.418   3.404  25.121  0.00  0.00    +0.000 C 
ATOM     13  H   UNL     1      18.400   6.403  24.585  0.00  0.00    +0.000 HD
BRANCH  12  15
ATOM     14  N   UNL     1      15.131   2.799  27.097  0.00  0.00    +0.000 NA
ATOM     15  C   UNL     1      16.286   3.115  26.593  0.00  0.00    +0.000 C 
BRANCH  15  19
ATOM     16  S   UNL     1      19.372   2.667  29.072  0.00  0.00    +0.000 S 
ATOM     17  N   UNL     1      18.218   4.382  27.519  0.00  0.00    +0.000 NA
ATOM     18  N   UNL     1      20.146   5.174  28.635  0.00  0.00    +0.000 N 
ATOM     19  C   UNL     1      17.495   3.207  27.455  0.00  0.00    +0.000 A 
ATOM     20  C   UNL     1      17.966   2.166  28.227  0.00  0.00    +0.000 A 
ATOM     21  C   UNL     1      19.230   4.213  28.342  0.00  0.00    +0.000 A 
ATOM     22  H   UNL     1      16.268   7.351  27.764  0.00  0.00    +0.000 HD
ATOM     23  H   UNL     1      16.268   7.351  27.764  0.00  0.00    +0.000 HD
ENDBRANCH  15  19
BRANCH  14  24
ATOM     24  O   UNL     1      14.126   2.777  26.119  0.00  0.00    +0.000 OA
ATOM     25  C   UNL     1      12.988   3.445  26.642  0.00  0.00    +0.000 C 
ENDBRANCH  14  24
ENDBRANCH  12  15
ENDBRANCH   5  11
BRANCH   7  27
ATOM     26  OXT UNL     1      15.842  10.214  22.903  0.00  0.00    +0.000 OA
ATOM     27  C   UNL     1      15.980   9.366  22.044  0.00  0.00    +0.000 C 
BRANCH  27  28
ATOM     28  O   UNL     1      15.284   9.275  20.894  0.00  0.00    +0.000 OA
ATOM     29  H   UNL     1      17.232   6.645  19.635  0.00  0.00    +0.000 HD
ENDBRANCH  27  28
ENDBRANCH   7  27
BRANCH   8  30
ATOM     30  C   UNL     1      18.722   9.617  20.898  0.00  0.00    +0.000 C 
BRANCH  30  31
ATOM     31  S   UNL     1      18.611   9.474  19.106  0.00  0.00    +0.000 S 
BRANCH  31  36
ATOM     32  S   UNL     1      20.736   8.806  17.088  0.00  0.00    +0.000 S 
ATOM     33  N   UNL     1      23.514   8.528  16.826  0.00  0.00    +0.000 N 
ATOM     34  N   UNL     1      21.227   9.221  19.630  0.00  0.00    +0.000 NA
ATOM     35  C   UNL     1      22.358   8.244  17.692  0.00  0.00    +0.000 C 
ATOM     36  C   UNL     1      20.288   9.182  18.738  0.00  0.00    +0.000 C 
ATOM     37  C   UNL     1      22.442   8.983  19.023  0.00  0.00    +0.000 C 
ATOM     38  C   UNL     1      23.595   9.506  19.476  0.00  0.00    +0.000 C 
ATOM     39  C   UNL     1      24.693   8.989  17.405  0.00  0.00    +0.000 C 
ATOM     40  C   UNL     1      23.534   7.914  15.502  0.00  0.00    +0.000 C 
ATOM     41  C   UNL     1      24.789   9.425  18.668  0.00  0.00    +0.000 C 
ENDBRANCH  31  36
ENDBRANCH  30  31
ENDBRANCH   8  30
TORSDOF 9
ENDMDL
MODEL 14
REMARK minimizedAffinity -7.17848778
REMARK minimizedRMSD -1
REMARK  Name = 88420547
REMARK  11 active torsions:
REMARK  status: ('A' for Active; 'I' for Inactive)
REMARK    1  A    between atoms: S_2  and  C_23
REMARK    2  A    between atoms: S_2  and  C_28
REMARK    3  A    between atoms: O_6  and  C_24
REMARK    4  A    between atoms: O_9  and  N_14
REMARK    5  A    between atoms: O_9  and  C_37
REMARK    6  A    between atoms: N_11  and  CA_18
REMARK    7  A    between atoms: N_12  and  C_33
REMARK    8  A    between atoms: CA_20  and  C_24
REMARK    9  A    between atoms: C_21  and  C_23
REMARK   10  A    between atoms: C_25  and  C_26
REMARK   11  A    between atoms: C_26  and  C_30
REMARK                            x       y       z     vdW  Elec       q    Type
REMARK                         _______ _______ _______ _____ _____    ______ ____
ROOT
ATOM      1  S   UNL     1      17.822   5.704  23.127  0.00  0.00    +0.000 S 
ATOM      2  O   UNL     1      17.585   9.886  21.091  0.00  0.00    +0.000 OA
ATOM      3  N   UNL     1      16.777   7.850  21.965  0.00  0.00    +0.000 N 
ATOM      4  C   UNL     1      17.463   6.621  21.609  0.00  0.00    +0.000 C 
ATOM      5  CA  UNL     1      18.601   7.526  21.074  0.00  0.00    +0.000 C 
ATOM      6  C   UNL     1      17.603   8.698  21.313  0.00  0.00    +0.000 C 
ATOM      7  CA  UNL     1      15.652   7.894  22.724  0.00  0.00    +0.000 C 
ATOM      8  C   UNL     1      15.250   6.826  23.455  0.00  0.00    +0.000 C 
ATOM      9  C   UNL     1      16.060   5.537  23.573  0.00  0.00    +0.000 C 
ENDROOT
BRANCH   5  11
ATOM     10  O   UNL     1      21.262   7.056  19.895  0.00  0.00    +0.000 OA
ATOM     11  N   UNL     1      18.937   7.301  19.674  0.00  0.00    +0.000 N 
ATOM     12  C   UNL     1      20.236   7.090  19.234  0.00  0.00    +0.000 C 
ATOM     13  H   UNL     1      17.662   4.956  20.660  0.00  0.00    +0.000 HD
BRANCH  12  15
ATOM     14  N   UNL     1      20.433   7.894  16.945  0.00  0.00    +0.000 NA
ATOM     15  C   UNL     1      20.333   6.877  17.746  0.00  0.00    +0.000 C 
BRANCH  15  19
ATOM     16  S   UNL     1      20.055   2.973  17.003  0.00  0.00    +0.000 S 
ATOM     17  N   UNL     1      20.639   5.237  15.899  0.00  0.00    +0.000 NA
ATOM     18  N   UNL     1      20.799   3.354  14.478  0.00  0.00    +0.000 N 
ATOM     19  C   UNL     1      20.306   5.487  17.216  0.00  0.00    +0.000 A 
ATOM     20  C   UNL     1      19.962   4.386  17.971  0.00  0.00    +0.000 A 
ATOM     21  C   UNL     1      20.541   3.944  15.675  0.00  0.00    +0.000 A 
ATOM     22  H   UNL     1      23.497   6.989  14.698  0.00  0.00    +0.000 HD
ATOM     23  H   UNL     1      23.497   6.989  14.698  0.00  0.00    +0.000 HD
ENDBRANCH  15  19
BRANCH  14  24
ATOM     24  O   UNL     1      20.432   9.109  17.645  0.00  0.00    +0.000 OA
ATOM     25  C   UNL     1      19.408   9.929  17.103  0.00  0.00    +0.000 C 
ENDBRANCH  14  24
ENDBRANCH  12  15
ENDBRANCH   5  11
BRANCH   7  27
ATOM     26  OXT UNL     1      15.221  10.103  23.491  0.00  0.00    +0.000 OA
ATOM     27  C   UNL     1      14.926   9.171  22.769  0.00  0.00    +0.000 C 
BRANCH  27  28
ATOM     28  O   UNL     1      13.902   9.134  21.894  0.00  0.00    +0.000 OA
ATOM     29  H   UNL     1      14.842   6.037  20.545  0.00  0.00    +0.000 HD
ENDBRANCH  27  28
ENDBRANCH   7  27
BRANCH   8  30
ATOM     30  C   UNL     1      13.973   6.769  24.258  0.00  0.00    +0.000 C 
BRANCH  30  31
ATOM     31  S   UNL     1      14.047   5.378  25.399  0.00  0.00    +0.000 S 
BRANCH  31  36
ATOM     32  S   UNL     1      12.610   2.740  25.300  0.00  0.00    +0.000 S 
ATOM     33  N   UNL     1      10.423   1.469  24.091  0.00  0.00    +0.000 N 
ATOM     34  N   UNL     1      11.987   4.791  23.790  0.00  0.00    +0.000 NA
ATOM     35  C   UNL     1      11.553   2.384  23.862  0.00  0.00    +0.000 C 
ATOM     36  C   UNL     1      12.793   4.381  24.718  0.00  0.00    +0.000 C 
ATOM     37  C   UNL     1      11.090   3.788  23.489  0.00  0.00    +0.000 C 
ATOM     38  C   UNL     1       9.840   4.035  23.060  0.00  0.00    +0.000 C 
ATOM     39  C   UNL     1       9.185   1.775  23.532  0.00  0.00    +0.000 C 
ATOM     40  C   UNL     1      10.731   0.102  24.498  0.00  0.00    +0.000 C 
ATOM     41  C   UNL     1       8.875   2.963  22.996  0.00  0.00    +0.000 C 
ENDBRANCH  31  36
ENDBRANCH  30  31
ENDBRANCH   8  30
TORSDOF 9
ENDMDL
MODEL 15
REMARK minimizedAffinity -7.10448456
REMARK minimizedRMSD -1
REMARK  Name = 88420547
REMARK  11 active torsions:
REMARK  status: ('A' for Active; 'I' for Inactive)
REMARK    1  A    between atoms: S_2  and  C_23
REMARK    2  A    between atoms: S_2  and  C_28
REMARK    3  A    between atoms: O_6  and  C_24
REMARK    4  A    between atoms: O_9  and  N_14
REMARK    5  A    between atoms: O_9  and  C_37
REMARK    6  A    between atoms: N_11  and  CA_18
REMARK    7  A    between atoms: N_12  and  C_33
REMARK    8  A    between atoms: CA_20  and  C_24
REMARK    9  A    between atoms: C_21  and  C_23
REMARK   10  A    between atoms: C_25  and  C_26
REMARK   11  A    between atoms: C_26  and  C_30
REMARK                            x       y       z     vdW  Elec       q    Type
REMARK                         _______ _______ _______ _____ _____    ______ ____
ROOT
ATOM      1  S   UNL     1      17.840   5.480  21.799  0.00  0.00    +0.000 S 
ATOM      2  O   UNL     1      13.976   6.805  24.035  0.00  0.00    +0.000 OA
ATOM      3  N   UNL     1      16.151   7.020  23.148  0.00  0.00    +0.000 N 
ATOM      4  C   UNL     1      17.105   5.951  23.383  0.00  0.00    +0.000 C 
ATOM      5  CA  UNL     1      15.894   5.105  23.851  0.00  0.00    +0.000 C 
ATOM      6  C   UNL     1      15.095   6.439  23.759  0.00  0.00    +0.000 C 
ATOM      7  CA  UNL     1      16.455   8.173  22.499  0.00  0.00    +0.000 C 
ATOM      8  C   UNL     1      17.585   8.293  21.761  0.00  0.00    +0.000 C 
ATOM      9  C   UNL     1      18.550   7.136  21.510  0.00  0.00    +0.000 C 
ENDROOT
BRANCH   5  11
ATOM     10  O   UNL     1      17.504   2.808  24.759  0.00  0.00    +0.000 OA
ATOM     11  N   UNL     1      16.021   4.575  25.202  0.00  0.00    +0.000 N 
ATOM     12  C   UNL     1      16.815   3.479  25.511  0.00  0.00    +0.000 C 
ATOM     13  H   UNL     1      17.448   7.032  25.086  0.00  0.00    +0.000 HD
BRANCH  12  15
ATOM     14  N   UNL     1      17.562   3.738  27.813  0.00  0.00    +0.000 NA
ATOM     15  C   UNL     1      16.789   3.119  26.973  0.00  0.00    +0.000 C 
BRANCH  15  19
ATOM     16  S   UNL     1      13.804   0.732  28.099  0.00  0.00    +0.000 S 
ATOM     17  N   UNL     1      16.370   0.805  27.789  0.00  0.00    +0.000 NA
ATOM     18  N   UNL     1      15.509  -1.254  28.570  0.00  0.00    +0.000 N 
ATOM     19  C   UNL     1      15.870   2.043  27.432  0.00  0.00    +0.000 A 
ATOM     20  C   UNL     1      14.504   2.194  27.534  0.00  0.00    +0.000 A 
ATOM     21  C   UNL     1      15.370   0.034  28.156  0.00  0.00    +0.000 A 
ATOM     22  H   UNL     1      19.322   0.876  29.778  0.00  0.00    +0.000 HD
ATOM     23  H   UNL     1      19.322   0.876  29.778  0.00  0.00    +0.000 HD
ENDBRANCH  15  19
BRANCH  14  24
ATOM     24  O   UNL     1      18.351   4.707  27.177  0.00  0.00    +0.000 OA
ATOM     25  C   UNL     1      19.676   4.590  27.671  0.00  0.00    +0.000 C 
ENDBRANCH  14  24
ENDBRANCH  12  15
ENDBRANCH   5  11
BRANCH   7  27
ATOM     26  OXT UNL     1      15.508  10.158  23.401  0.00  0.00    +0.000 OA
ATOM     27  C   UNL     1      15.472   9.264  22.580  0.00  0.00    +0.000 C 
BRANCH  27  28
ATOM     28  O   UNL     1      14.548   9.106  21.612  0.00  0.00    +0.000 OA
ATOM     29  H   UNL     1      16.224   6.418  20.108  0.00  0.00    +0.000 HD
ENDBRANCH  27  28
ENDBRANCH   7  27
BRANCH   8  30
ATOM     30  C   UNL     1      18.032   9.563  21.078  0.00  0.00    +0.000 C 
BRANCH  30  31
ATOM     31  S   UNL     1      17.456   9.558  19.373  0.00  0.00    +0.000 S 
BRANCH  31  36
ATOM     32  S   UNL     1      20.456   9.366  19.368  0.00  0.00    +0.000 S 
ATOM     33  N   UNL     1      22.593   8.329  17.878  0.00  0.00    +0.000 N 
ATOM     34  N   UNL     1      18.941   8.488  17.416  0.00  0.00    +0.000 NA
ATOM     35  C   UNL     1      21.299   9.026  17.791  0.00  0.00    +0.000 C 
ATOM     36  C   UNL     1      18.924   9.064  18.576  0.00  0.00    +0.000 C 
ATOM     37  C   UNL     1      20.244   8.191  17.074  0.00  0.00    +0.000 C 
ATOM     38  C   UNL     1      20.571   7.140  16.302  0.00  0.00    +0.000 C 
ATOM     39  C   UNL     1      22.869   7.306  16.976  0.00  0.00    +0.000 C 
ATOM     40  C   UNL     1      23.679   9.004  18.581  0.00  0.00    +0.000 C 
ATOM     41  C   UNL     1      21.953   6.738  16.180  0.00  0.00    +0.000 C 
ENDBRANCH  31  36
ENDBRANCH  30  31
ENDBRANCH   8  30
TORSDOF 9
ENDMDL
MODEL 16
REMARK minimizedAffinity -7.08630514
REMARK minimizedRMSD -1
REMARK  Name = 88420547
REMARK  11 active torsions:
REMARK  status: ('A' for Active; 'I' for Inactive)
REMARK    1  A    between atoms: S_2  and  C_23
REMARK    2  A    between atoms: S_2  and  C_28
REMARK    3  A    between atoms: O_6  and  C_24
REMARK    4  A    between atoms: O_9  and  N_14
REMARK    5  A    between atoms: O_9  and  C_37
REMARK    6  A    between atoms: N_11  and  CA_18
REMARK    7  A    between atoms: N_12  and  C_33
REMARK    8  A    between atoms: CA_20  and  C_24
REMARK    9  A    between atoms: C_21  and  C_23
REMARK   10  A    between atoms: C_25  and  C_26
REMARK   11  A    between atoms: C_26  and  C_30
REMARK                            x       y       z     vdW  Elec       q    Type
REMARK                         _______ _______ _______ _____ _____    ______ ____
ROOT
ATOM      1  S   UNL     1      17.505   5.207  19.977  0.00  0.00    +0.000 S 
ATOM      2  O   UNL     1      14.366   7.681  22.368  0.00  0.00    +0.000 OA
ATOM      3  N   UNL     1      16.403   7.255  21.258  0.00  0.00    +0.000 N 
ATOM      4  C   UNL     1      17.104   6.016  21.545  0.00  0.00    +0.000 C 
ATOM      5  CA  UNL     1      15.798   5.551  22.237  0.00  0.00    +0.000 C 
ATOM      6  C   UNL     1      15.326   7.022  22.039  0.00  0.00    +0.000 C 
ATOM      7  CA  UNL     1      16.883   8.219  20.432  0.00  0.00    +0.000 C 
ATOM      8  C   UNL     1      17.909   7.975  19.580  0.00  0.00    +0.000 C 
ATOM      9  C   UNL     1      18.540   6.596  19.399  0.00  0.00    +0.000 C 
ENDROOT
BRANCH   5  11
ATOM     10  O   UNL     1      15.825   2.828  23.364  0.00  0.00    +0.000 OA
ATOM     11  N   UNL     1      15.965   5.157  23.629  0.00  0.00    +0.000 N 
ATOM     12  C   UNL     1      15.960   3.832  24.044  0.00  0.00    +0.000 C 
ATOM     13  H   UNL     1      18.486   6.048  22.658  0.00  0.00    +0.000 HD
BRANCH  12  15
ATOM     14  N   UNL     1      15.128   3.533  26.313  0.00  0.00    +0.000 NA
ATOM     15  C   UNL     1      16.155   3.674  25.529  0.00  0.00    +0.000 C 
BRANCH  15  19
ATOM     16  S   UNL     1      20.011   3.269  26.442  0.00  0.00    +0.000 S 
ATOM     17  N   UNL     1      17.829   4.420  27.213  0.00  0.00    +0.000 NA
ATOM     18  N   UNL     1      19.726   4.858  28.555  0.00  0.00    +0.000 N 
ATOM     19  C   UNL     1      17.537   3.689  26.078  0.00  0.00    +0.000 A 
ATOM     20  C   UNL     1      18.591   2.999  25.518  0.00  0.00    +0.000 A 
ATOM     21  C   UNL     1      19.105   4.272  27.497  0.00  0.00    +0.000 A 
ATOM     22  H   UNL     1      15.434   4.169  29.836  0.00  0.00    +0.000 HD
ATOM     23  H   UNL     1      15.434   4.169  29.836  0.00  0.00    +0.000 HD
ENDBRANCH  15  19
BRANCH  14  24
ATOM     24  O   UNL     1      13.922   3.555  25.598  0.00  0.00    +0.000 OA
ATOM     25  C   UNL     1      13.153   4.653  26.064  0.00  0.00    +0.000 C 
ENDBRANCH  14  24
ENDBRANCH  12  15
ENDBRANCH   5  11
BRANCH   7  27
ATOM     26  OXT UNL     1      15.373   9.875  19.639  0.00  0.00    +0.000 OA
ATOM     27  C   UNL     1      16.200   9.520  20.456  0.00  0.00    +0.000 C 
BRANCH  27  28
ATOM     28  O   UNL     1      16.635  10.235  21.511  0.00  0.00    +0.000 OA
ATOM     29  H   UNL     1      18.537   7.598  22.826  0.00  0.00    +0.000 HD
ENDBRANCH  27  28
ENDBRANCH   7  27
BRANCH   8  30
ATOM     30  C   UNL     1      18.550   9.013  18.691  0.00  0.00    +0.000 C 
BRANCH  30  31
ATOM     31  S   UNL     1      19.928   9.776  19.564  0.00  0.00    +0.000 S 
BRANCH  31  36
ATOM     32  S   UNL     1      22.828   9.006  19.397  0.00  0.00    +0.000 S 
ATOM     33  N   UNL     1      24.685   7.778  17.691  0.00  0.00    +0.000 N 
ATOM     34  N   UNL     1      21.129   8.705  17.422  0.00  0.00    +0.000 NA
ATOM     35  C   UNL     1      23.554   8.718  17.753  0.00  0.00    +0.000 C 
ATOM     36  C   UNL     1      21.251   9.115  18.645  0.00  0.00    +0.000 C 
ATOM     37  C   UNL     1      22.339   8.207  16.986  0.00  0.00    +0.000 C 
ATOM     38  C   UNL     1      22.434   7.223  16.075  0.00  0.00    +0.000 C 
ATOM     39  C   UNL     1      24.733   6.848  16.657  0.00  0.00    +0.000 C 
ATOM     40  C   UNL     1      25.898   8.130  18.423  0.00  0.00    +0.000 C 
ATOM     41  C   UNL     1      23.705   6.580  15.839  0.00  0.00    +0.000 C 
ENDBRANCH  31  36
ENDBRANCH  30  31
ENDBRANCH   8  30
TORSDOF 9
ENDMDL
