MODEL 1
REMARK minimizedAffinity -8.44711971
REMARK minimizedRMSD -1
REMARK  Name = 44137025
REMARK  15 active torsions:
REMARK  status: ('A' for Active; 'I' for Inactive)
REMARK    1  A    between atoms: S_2  and  C_24
REMARK    2  A    between atoms: S_2  and  C_37
REMARK    3  A    between atoms: O_6  and  C_30
REMARK    4  A    between atoms: O_9  and  N_16
REMARK    5  A    between atoms: O_9  and  C_41
REMARK    6  A    between atoms: O_10  and  C_46
REMARK    7  A    between atoms: N_13  and  CA_20
REMARK    8  A    between atoms: N_14  and  C_32
REMARK    9  A    between atoms: CA_22  and  C_30
REMARK   10  A    between atoms: C_31  and  C_38
REMARK   11  A    between atoms: C_32  and  C_36
REMARK   12  A    between atoms: C_38  and  C_40
REMARK   13  A    between atoms: C_41  and  C_44
REMARK   14  A    between atoms: C_41  and  C_45
REMARK   15  A    between atoms: C_41  and  C_46
REMARK                            x       y       z     vdW  Elec       q    Type
REMARK                         _______ _______ _______ _____ _____    ______ ____
ROOT
ATOM      1  S   UNL     1      19.137   6.456  20.125  0.00  0.00    +0.000 S 
ATOM      2  O   UNL     1      16.447  10.095  21.197  0.00  0.00    +0.000 OA
ATOM      3  N   UNL     1      18.306   8.970  20.278  0.00  0.00    +0.000 N 
ATOM      4  C   UNL     1      18.985   7.975  21.088  0.00  0.00    +0.000 C 
ATOM      5  CA  UNL     1      17.774   8.068  22.043  0.00  0.00    +0.000 C 
ATOM      6  C   UNL     1      17.335   9.275  21.164  0.00  0.00    +0.000 C 
ATOM      7  CA  UNL     1      18.697   9.343  19.031  0.00  0.00    +0.000 C 
ATOM      8  C   UNL     1      20.140   7.256  18.823  0.00  0.00    +0.000 C 
ATOM      9  C   UNL     1      19.583   8.590  18.334  0.00  0.00    +0.000 C 
ENDROOT
BRANCH   5  11
ATOM     10  O   UNL     1      17.900   5.550  23.570  0.00  0.00    +0.000 OA
ATOM     11  N   UNL     1      16.807   6.971  22.055  0.00  0.00    +0.000 N 
ATOM     12  C   UNL     1      16.979   5.830  22.821  0.00  0.00    +0.000 C 
ATOM     13  H   UNL     1      15.173   8.043  20.793  0.00  0.00    +0.000 HD
BRANCH  12  15
ATOM     14  N   UNL     1      14.807   4.924  23.444  0.00  0.00    +0.000 NA
ATOM     15  C   UNL     1      15.849   4.845  22.673  0.00  0.00    +0.000 C 
BRANCH  15  19
ATOM     16  S   UNL     1      16.335   1.574  20.452  0.00  0.00    +0.000 S 
ATOM     17  N   UNL     1      15.662   4.067  20.317  0.00  0.00    +0.000 NA
ATOM     18  N   UNL     1      15.628   2.903  18.259  0.00  0.00    +0.000 N 
ATOM     19  C   UNL     1      15.953   3.783  21.637  0.00  0.00    +0.000 A 
ATOM     20  C   UNL     1      16.336   2.485  21.904  0.00  0.00    +0.000 A 
ATOM     21  C   UNL     1      15.829   2.976  19.601  0.00  0.00    +0.000 A 
ATOM     22  H   UNL     1      18.761   6.906  21.451  0.00  0.00    +0.000 HD
ATOM     23  H   UNL     1      18.761   6.906  21.451  0.00  0.00    +0.000 HD
ENDBRANCH  15  19
BRANCH  14  24
ATOM     24  O   UNL     1      14.912   5.986  24.352  0.00  0.00    +0.000 OA
BRANCH  24  25
ATOM     25  C   UNL     1      13.604   6.460  24.630  0.00  0.00    +0.000 C 
ATOM     26  C   UNL     1      13.437   6.525  26.145  0.00  0.00    +0.000 C 
ATOM     27  C   UNL     1      12.607   5.507  23.977  0.00  0.00    +0.000 C 
BRANCH  25  29
ATOM     28  O   UNL     1      12.498   8.368  23.597  0.00  0.00    +0.000 OA
ATOM     29  C   UNL     1      13.529   7.847  24.007  0.00  0.00    +0.000 C 
BRANCH  29  30
ATOM     30  O   UNL     1      14.731   8.474  23.941  0.00  0.00    +0.000 OA
ATOM     31  H   UNL     1      10.603   3.212  21.452  0.00  0.00    +0.000 HD
ENDBRANCH  29  30
ENDBRANCH  25  29
ENDBRANCH  24  25
ENDBRANCH  14  24
ENDBRANCH  12  15
ENDBRANCH   5  11
BRANCH   7  33
ATOM     32  OXT UNL     1      17.101  10.578  17.776  0.00  0.00    +0.000 OA
ATOM     33  C   UNL     1      18.082  10.568  18.488  0.00  0.00    +0.000 C 
BRANCH  33  34
ATOM     34  O   UNL     1      18.780  11.638  18.911  0.00  0.00    +0.000 OA
ATOM     35  H   UNL     1      16.518   7.547  20.925  0.00  0.00    +0.000 HD
ENDBRANCH  33  34
ENDBRANCH   7  33
BRANCH   9  36
ATOM     36  S   UNL     1      20.171   9.070  16.746  0.00  0.00    +0.000 S 
BRANCH  36  40
ATOM     37  S   UNL     1      22.198   6.851  16.169  0.00  0.00    +0.000 S 
ATOM     38  N   UNL     1      22.768   8.995  17.496  0.00  0.00    +0.000 NA
ATOM     39  C   UNL     1      23.914   8.226  17.432  0.00  0.00    +0.000 A 
ATOM     40  C   UNL     1      21.800   8.369  16.864  0.00  0.00    +0.000 A 
ATOM     41  C   UNL     1      23.800   7.030  16.754  0.00  0.00    +0.000 A 
BRANCH  39  42
ATOM     42  C   UNL     1      25.138   8.737  18.079  0.00  0.00    +0.000 C 
BRANCH  42  43
ATOM     43  N   UNL     1      25.332   8.274  19.515  0.00  0.00    +0.000 N 
ATOM     44  C   UNL     1      25.279   9.148  20.519  0.00  0.00    +0.000 A 
ATOM     45  C   UNL     1      25.067  10.620  20.394  0.00  0.00    +0.000 C 
ATOM     46  C   UNL     1      24.703  10.967  21.848  0.00  0.00    +0.000 C 
ATOM     47  C   UNL     1      25.399   9.928  22.750  0.00  0.00    +0.000 C 
ATOM     48  C   UNL     1      25.467   8.751  21.834  0.00  0.00    +0.000 A 
ATOM     49  C   UNL     1      25.721   7.424  22.119  0.00  0.00    +0.000 A 
ATOM     50  C   UNL     1      25.563   6.972  19.751  0.00  0.00    +0.000 A 
ATOM     51  C   UNL     1      25.763   6.519  21.058  0.00  0.00    +0.000 A 
ENDBRANCH  42  43
ENDBRANCH  39  42
ENDBRANCH  36  40
ENDBRANCH   9  36
TORSDOF 13
ENDMDL
MODEL 2
REMARK minimizedAffinity -8.12611294
REMARK minimizedRMSD -1
REMARK  Name = 44137025
REMARK  15 active torsions:
REMARK  status: ('A' for Active; 'I' for Inactive)
REMARK    1  A    between atoms: S_2  and  C_24
REMARK    2  A    between atoms: S_2  and  C_37
REMARK    3  A    between atoms: O_6  and  C_30
REMARK    4  A    between atoms: O_9  and  N_16
REMARK    5  A    between atoms: O_9  and  C_41
REMARK    6  A    between atoms: O_10  and  C_46
REMARK    7  A    between atoms: N_13  and  CA_20
REMARK    8  A    between atoms: N_14  and  C_32
REMARK    9  A    between atoms: CA_22  and  C_30
REMARK   10  A    between atoms: C_31  and  C_38
REMARK   11  A    between atoms: C_32  and  C_36
REMARK   12  A    between atoms: C_38  and  C_40
REMARK   13  A    between atoms: C_41  and  C_44
REMARK   14  A    between atoms: C_41  and  C_45
REMARK   15  A    between atoms: C_41  and  C_46
REMARK                            x       y       z     vdW  Elec       q    Type
REMARK                         _______ _______ _______ _____ _____    ______ ____
ROOT
ATOM      1  S   UNL     1      13.426   3.903  22.071  0.00  0.00    +0.000 S 
ATOM      2  O   UNL     1      14.025   6.085  26.134  0.00  0.00    +0.000 OA
ATOM      3  N   UNL     1      13.095   4.525  24.627  0.00  0.00    +0.000 N 
ATOM      4  C   UNL     1      12.690   4.987  23.313  0.00  0.00    +0.000 C 
ATOM      5  CA  UNL     1      13.461   6.285  23.638  0.00  0.00    +0.000 C 
ATOM      6  C   UNL     1      13.589   5.699  25.074  0.00  0.00    +0.000 C 
ATOM      7  CA  UNL     1      12.931   3.254  25.080  0.00  0.00    +0.000 C 
ATOM      8  C   UNL     1      12.568   2.419  22.704  0.00  0.00    +0.000 C 
ATOM      9  C   UNL     1      12.644   2.248  24.219  0.00  0.00    +0.000 C 
ENDROOT
BRANCH   5  11
ATOM     10  O   UNL     1      15.249   8.611  23.920  0.00  0.00    +0.000 OA
ATOM     11  N   UNL     1      14.748   6.518  22.985  0.00  0.00    +0.000 N 
ATOM     12  C   UNL     1      15.501   7.659  23.200  0.00  0.00    +0.000 C 
ATOM     13  H   UNL     1      14.938   4.412  22.014  0.00  0.00    +0.000 HD
BRANCH  12  15
ATOM     14  N   UNL     1      17.727   6.814  22.694  0.00  0.00    +0.000 NA
ATOM     15  C   UNL     1      16.790   7.671  22.421  0.00  0.00    +0.000 C 
BRANCH  15  19
ATOM     16  S   UNL     1      16.562  10.270  19.411  0.00  0.00    +0.000 S 
ATOM     17  N   UNL     1      18.210   9.245  21.118  0.00  0.00    +0.000 NA
ATOM     18  N   UNL     1      19.152  10.831  19.639  0.00  0.00    +0.000 N 
ATOM     19  C   UNL     1      16.970   8.681  21.343  0.00  0.00    +0.000 A 
ATOM     20  C   UNL     1      15.953   9.112  20.518  0.00  0.00    +0.000 A 
ATOM     21  C   UNL     1      18.114  10.098  20.122  0.00  0.00    +0.000 A 
ATOM     22  H   UNL     1      18.819   4.948  20.783  0.00  0.00    +0.000 HD
ATOM     23  H   UNL     1      18.819   4.948  20.783  0.00  0.00    +0.000 HD
ENDBRANCH  15  19
BRANCH  14  24
ATOM     24  O   UNL     1      17.361   5.960  23.743  0.00  0.00    +0.000 OA
BRANCH  24  25
ATOM     25  C   UNL     1      18.119   4.766  23.626  0.00  0.00    +0.000 C 
ATOM     26  C   UNL     1      18.615   4.384  25.017  0.00  0.00    +0.000 C 
ATOM     27  C   UNL     1      19.266   5.028  22.653  0.00  0.00    +0.000 C 
BRANCH  25  29
ATOM     28  O   UNL     1      16.297   3.156  23.740  0.00  0.00    +0.000 OA
ATOM     29  C   UNL     1      17.158   3.722  23.076  0.00  0.00    +0.000 C 
BRANCH  29  30
ATOM     30  O   UNL     1      17.340   3.462  21.757  0.00  0.00    +0.000 OA
ATOM     31  H   UNL     1      19.927   2.807  28.375  0.00  0.00    +0.000 HD
ENDBRANCH  29  30
ENDBRANCH  25  29
ENDBRANCH  24  25
ENDBRANCH  14  24
ENDBRANCH  12  15
ENDBRANCH   5  11
BRANCH   7  33
ATOM     32  OXT UNL     1      12.230   3.142  27.349  0.00  0.00    +0.000 OA
ATOM     33  C   UNL     1      13.117   3.043  26.528  0.00  0.00    +0.000 C 
BRANCH  33  34
ATOM     34  O   UNL     1      14.405   2.733  26.767  0.00  0.00    +0.000 OA
ATOM     35  H   UNL     1      10.612   1.142  23.768  0.00  0.00    +0.000 HD
ENDBRANCH  33  34
ENDBRANCH   7  33
BRANCH   9  36
ATOM     36  S   UNL     1      12.354   0.601  24.768  0.00  0.00    +0.000 S 
BRANCH  36  40
ATOM     37  S   UNL     1      10.981  -0.671  22.346  0.00  0.00    +0.000 S 
ATOM     38  N   UNL     1       9.730   0.724  24.126  0.00  0.00    +0.000 NA
ATOM     39  C   UNL     1       8.802   0.314  23.189  0.00  0.00    +0.000 A 
ATOM     40  C   UNL     1      10.912   0.264  23.783  0.00  0.00    +0.000 A 
ATOM     41  C   UNL     1       9.291  -0.450  22.151  0.00  0.00    +0.000 A 
BRANCH  39  42
ATOM     42  C   UNL     1       7.394   0.718  23.373  0.00  0.00    +0.000 C 
BRANCH  42  43
ATOM     43  N   UNL     1       7.171   2.222  23.421  0.00  0.00    +0.000 N 
ATOM     44  C   UNL     1       6.646   2.793  24.503  0.00  0.00    +0.000 A 
ATOM     45  C   UNL     1       6.198   2.088  25.740  0.00  0.00    +0.000 C 
ATOM     46  C   UNL     1       6.098   3.278  26.711  0.00  0.00    +0.000 C 
ATOM     47  C   UNL     1       5.790   4.529  25.865  0.00  0.00    +0.000 C 
ATOM     48  C   UNL     1       6.421   4.160  24.563  0.00  0.00    +0.000 A 
ATOM     49  C   UNL     1       6.739   4.955  23.480  0.00  0.00    +0.000 A 
ATOM     50  C   UNL     1       7.507   2.962  22.351  0.00  0.00    +0.000 A 
ATOM     51  C   UNL     1       7.298   4.344  22.357  0.00  0.00    +0.000 A 
ENDBRANCH  42  43
ENDBRANCH  39  42
ENDBRANCH  36  40
ENDBRANCH   9  36
TORSDOF 13
ENDMDL
MODEL 3
REMARK minimizedAffinity -7.92110538
REMARK minimizedRMSD -1
REMARK  Name = 44137025
REMARK  15 active torsions:
REMARK  status: ('A' for Active; 'I' for Inactive)
REMARK    1  A    between atoms: S_2  and  C_24
REMARK    2  A    between atoms: S_2  and  C_37
REMARK    3  A    between atoms: O_6  and  C_30
REMARK    4  A    between atoms: O_9  and  N_16
REMARK    5  A    between atoms: O_9  and  C_41
REMARK    6  A    between atoms: O_10  and  C_46
REMARK    7  A    between atoms: N_13  and  CA_20
REMARK    8  A    between atoms: N_14  and  C_32
REMARK    9  A    between atoms: CA_22  and  C_30
REMARK   10  A    between atoms: C_31  and  C_38
REMARK   11  A    between atoms: C_32  and  C_36
REMARK   12  A    between atoms: C_38  and  C_40
REMARK   13  A    between atoms: C_41  and  C_44
REMARK   14  A    between atoms: C_41  and  C_45
REMARK   15  A    between atoms: C_41  and  C_46
REMARK                            x       y       z     vdW  Elec       q    Type
REMARK                         _______ _______ _______ _____ _____    ______ ____
ROOT
ATOM      1  S   UNL     1      16.797   4.548  22.429  0.00  0.00    +0.000 S 
ATOM      2  O   UNL     1      15.934   8.649  20.412  0.00  0.00    +0.000 OA
ATOM      3  N   UNL     1      15.485   6.745  21.731  0.00  0.00    +0.000 N 
ATOM      4  C   UNL     1      15.820   5.437  21.198  0.00  0.00    +0.000 C 
ATOM      5  CA  UNL     1      16.610   6.192  20.106  0.00  0.00    +0.000 C 
ATOM      6  C   UNL     1      15.953   7.474  20.696  0.00  0.00    +0.000 C 
ATOM      7  CA  UNL     1      14.878   6.954  22.929  0.00  0.00    +0.000 C 
ATOM      8  C   UNL     1      15.462   4.592  23.676  0.00  0.00    +0.000 C 
ATOM      9  C   UNL     1      14.811   5.962  23.850  0.00  0.00    +0.000 C 
ENDROOT
BRANCH   5  11
ATOM     10  O   UNL     1      18.515   4.731  18.398  0.00  0.00    +0.000 OA
ATOM     11  N   UNL     1      18.070   6.198  20.175  0.00  0.00    +0.000 N 
ATOM     12  C   UNL     1      18.863   5.464  19.310  0.00  0.00    +0.000 C 
ATOM     13  H   UNL     1      18.254   7.883  21.769  0.00  0.00    +0.000 HD
BRANCH  12  15
ATOM     14  N   UNL     1      21.017   6.529  18.923  0.00  0.00    +0.000 NA
ATOM     15  C   UNL     1      20.336   5.634  19.573  0.00  0.00    +0.000 C 
BRANCH  15  19
ATOM     16  S   UNL     1      21.786   3.731  22.758  0.00  0.00    +0.000 S 
ATOM     17  N   UNL     1      21.765   3.687  20.174  0.00  0.00    +0.000 NA
ATOM     18  N   UNL     1      23.035   1.976  21.198  0.00  0.00    +0.000 N 
ATOM     19  C   UNL     1      20.993   4.757  20.580  0.00  0.00    +0.000 A 
ATOM     20  C   UNL     1      20.886   4.941  21.942  0.00  0.00    +0.000 A 
ATOM     21  C   UNL     1      22.234   3.074  21.238  0.00  0.00    +0.000 A 
ATOM     22  H   UNL     1      23.505   7.171  18.228  0.00  0.00    +0.000 HD
ATOM     23  H   UNL     1      23.505   7.171  18.228  0.00  0.00    +0.000 HD
ENDBRANCH  15  19
BRANCH  14  24
ATOM     24  O   UNL     1      20.215   7.238  18.020  0.00  0.00    +0.000 OA
BRANCH  24  25
ATOM     25  C   UNL     1      20.610   8.601  18.054  0.00  0.00    +0.000 C 
ATOM     26  C   UNL     1      22.132   8.649  18.140  0.00  0.00    +0.000 C 
ATOM     27  C   UNL     1      19.939   9.258  19.257  0.00  0.00    +0.000 C 
BRANCH  25  29
ATOM     28  O   UNL     1      19.390  10.192  16.673  0.00  0.00    +0.000 OA
ATOM     29  C   UNL     1      20.113   9.205  16.748  0.00  0.00    +0.000 C 
BRANCH  29  30
ATOM     30  O   UNL     1      20.547   8.542  15.646  0.00  0.00    +0.000 OA
ATOM     31  H   UNL     1      16.303   8.442  21.383  0.00  0.00    +0.000 HD
ENDBRANCH  29  30
ENDBRANCH  25  29
ENDBRANCH  24  25
ENDBRANCH  14  24
ENDBRANCH  12  15
ENDBRANCH   5  11
BRANCH   7  33
ATOM     32  OXT UNL     1      13.206   8.644  22.917  0.00  0.00    +0.000 OA
ATOM     33  C   UNL     1      14.344   8.308  23.167  0.00  0.00    +0.000 C 
BRANCH  33  34
ATOM     34  O   UNL     1      15.313   9.079  23.693  0.00  0.00    +0.000 OA
ATOM     35  H   UNL     1      13.128   4.576  24.614  0.00  0.00    +0.000 HD
ENDBRANCH  33  34
ENDBRANCH   7  33
BRANCH   9  36
ATOM     36  S   UNL     1      13.973   6.166  25.384  0.00  0.00    +0.000 S 
BRANCH  36  40
ATOM     37  S   UNL     1      13.135   3.481  26.591  0.00  0.00    +0.000 S 
ATOM     38  N   UNL     1      12.202   4.398  24.362  0.00  0.00    +0.000 NA
ATOM     39  C   UNL     1      11.606   3.173  24.593  0.00  0.00    +0.000 A 
ATOM     40  C   UNL     1      13.026   4.661  25.350  0.00  0.00    +0.000 A 
ATOM     41  C   UNL     1      11.985   2.526  25.750  0.00  0.00    +0.000 A 
BRANCH  39  42
ATOM     42  C   UNL     1      10.632   2.670  23.603  0.00  0.00    +0.000 C 
BRANCH  42  43
ATOM     43  N   UNL     1       9.246   3.289  23.712  0.00  0.00    +0.000 N 
ATOM     44  C   UNL     1       8.345   2.782  24.550  0.00  0.00    +0.000 A 
ATOM     45  C   UNL     1       8.532   1.591  25.429  0.00  0.00    +0.000 C 
ATOM     46  C   UNL     1       7.350   1.777  26.398  0.00  0.00    +0.000 C 
ATOM     47  C   UNL     1       6.253   2.541  25.631  0.00  0.00    +0.000 C 
ATOM     48  C   UNL     1       7.071   3.320  24.655  0.00  0.00    +0.000 A 
ATOM     49  C   UNL     1       6.719   4.403  23.874  0.00  0.00    +0.000 A 
ATOM     50  C   UNL     1       8.948   4.350  22.943  0.00  0.00    +0.000 A 
ATOM     51  C   UNL     1       7.678   4.930  23.007  0.00  0.00    +0.000 A 
ENDBRANCH  42  43
ENDBRANCH  39  42
ENDBRANCH  36  40
ENDBRANCH   9  36
TORSDOF 13
ENDMDL
MODEL 4
REMARK minimizedAffinity -7.91129208
REMARK minimizedRMSD -1
REMARK  Name = 44137025
REMARK  15 active torsions:
REMARK  status: ('A' for Active; 'I' for Inactive)
REMARK    1  A    between atoms: S_2  and  C_24
REMARK    2  A    between atoms: S_2  and  C_37
REMARK    3  A    between atoms: O_6  and  C_30
REMARK    4  A    between atoms: O_9  and  N_16
REMARK    5  A    between atoms: O_9  and  C_41
REMARK    6  A    between atoms: O_10  and  C_46
REMARK    7  A    between atoms: N_13  and  CA_20
REMARK    8  A    between atoms: N_14  and  C_32
REMARK    9  A    between atoms: CA_22  and  C_30
REMARK   10  A    between atoms: C_31  and  C_38
REMARK   11  A    between atoms: C_32  and  C_36
REMARK   12  A    between atoms: C_38  and  C_40
REMARK   13  A    between atoms: C_41  and  C_44
REMARK   14  A    between atoms: C_41  and  C_45
REMARK   15  A    between atoms: C_41  and  C_46
REMARK                            x       y       z     vdW  Elec       q    Type
REMARK                         _______ _______ _______ _____ _____    ______ ____
ROOT
ATOM      1  S   UNL     1      18.522   5.158  18.747  0.00  0.00    +0.000 S 
ATOM      2  O   UNL     1      18.008   8.521  21.918  0.00  0.00    +0.000 OA
ATOM      3  N   UNL     1      19.050   7.337  20.163  0.00  0.00    +0.000 N 
ATOM      4  C   UNL     1      19.158   5.893  20.268  0.00  0.00    +0.000 C 
ATOM      5  CA  UNL     1      18.166   6.003  21.447  0.00  0.00    +0.000 C 
ATOM      6  C   UNL     1      18.371   7.540  21.312  0.00  0.00    +0.000 C 
ATOM      7  CA  UNL     1      19.557   8.073  19.139  0.00  0.00    +0.000 C 
ATOM      8  C   UNL     1      19.771   5.985  17.700  0.00  0.00    +0.000 C 
ATOM      9  C   UNL     1      19.943   7.475  17.986  0.00  0.00    +0.000 C 
ENDROOT
BRANCH   5  11
ATOM     10  O   UNL     1      16.310   4.835  23.417  0.00  0.00    +0.000 OA
ATOM     11  N   UNL     1      16.782   5.577  21.240  0.00  0.00    +0.000 N 
ATOM     12  C   UNL     1      16.006   5.039  22.252  0.00  0.00    +0.000 C 
ATOM     13  H   UNL     1      16.570   6.406  19.077  0.00  0.00    +0.000 HD
BRANCH  12  15
ATOM     14  N   UNL     1      13.690   5.590  21.746  0.00  0.00    +0.000 NA
ATOM     15  C   UNL     1      14.615   4.680  21.800  0.00  0.00    +0.000 C 
BRANCH  15  19
ATOM     16  S   UNL     1      13.338   0.935  21.340  0.00  0.00    +0.000 S 
ATOM     17  N   UNL     1      15.015   2.663  20.400  0.00  0.00    +0.000 NA
ATOM     18  N   UNL     1      15.051   0.548  19.343  0.00  0.00    +0.000 N 
ATOM     19  C   UNL     1      14.321   3.271  21.427  0.00  0.00    +0.000 A 
ATOM     20  C   UNL     1      13.371   2.493  22.056  0.00  0.00    +0.000 A 
ATOM     21  C   UNL     1      14.580   1.430  20.264  0.00  0.00    +0.000 A 
ATOM     22  H   UNL     1      18.056   4.033  23.197  0.00  0.00    +0.000 HD
ATOM     23  H   UNL     1      18.056   4.033  23.197  0.00  0.00    +0.000 HD
ENDBRANCH  15  19
BRANCH  14  24
ATOM     24  O   UNL     1      14.171   6.845  22.145  0.00  0.00    +0.000 OA
BRANCH  24  25
ATOM     25  C   UNL     1      13.217   7.425  23.021  0.00  0.00    +0.000 C 
ATOM     26  C   UNL     1      13.591   7.039  24.449  0.00  0.00    +0.000 C 
ATOM     27  C   UNL     1      11.836   6.911  22.624  0.00  0.00    +0.000 C 
BRANCH  25  29
ATOM     28  O   UNL     1      12.443   9.626  22.326  0.00  0.00    +0.000 OA
ATOM     29  C   UNL     1      13.327   8.929  22.809  0.00  0.00    +0.000 C 
BRANCH  29  30
ATOM     30  O   UNL     1      14.517   9.445  23.210  0.00  0.00    +0.000 OA
ATOM     31  H   UNL     1      11.069   5.407  18.442  0.00  0.00    +0.000 HD
ENDBRANCH  29  30
ENDBRANCH  25  29
ENDBRANCH  24  25
ENDBRANCH  14  24
ENDBRANCH  12  15
ENDBRANCH   5  11
BRANCH   7  33
ATOM     32  OXT UNL     1      18.815  10.319  18.904  0.00  0.00    +0.000 OA
ATOM     33  C   UNL     1      19.623   9.532  19.348  0.00  0.00    +0.000 C 
BRANCH  33  34
ATOM     34  O   UNL     1      20.704   9.823  20.095  0.00  0.00    +0.000 OA
ATOM     35  H   UNL     1      16.659   6.742  20.316  0.00  0.00    +0.000 HD
ENDBRANCH  33  34
ENDBRANCH   7  33
BRANCH   9  36
ATOM     36  S   UNL     1      20.669   8.378  16.661  0.00  0.00    +0.000 S 
BRANCH  36  40
ATOM     37  S   UNL     1      23.539   7.834  15.746  0.00  0.00    +0.000 S 
ATOM     38  N   UNL     1      22.795   7.778  18.221  0.00  0.00    +0.000 NA
ATOM     39  C   UNL     1      24.144   7.487  18.184  0.00  0.00    +0.000 A 
ATOM     40  C   UNL     1      22.369   7.979  16.994  0.00  0.00    +0.000 A 
ATOM     41  C   UNL     1      24.724   7.471  16.932  0.00  0.00    +0.000 A 
BRANCH  39  42
ATOM     42  C   UNL     1      24.840   7.224  19.459  0.00  0.00    +0.000 C 
BRANCH  42  43
ATOM     43  N   UNL     1      25.084   8.461  20.310  0.00  0.00    +0.000 N 
ATOM     44  C   UNL     1      25.437   8.342  21.589  0.00  0.00    +0.000 A 
ATOM     45  C   UNL     1      25.604   7.063  22.340  0.00  0.00    +0.000 C 
ATOM     46  C   UNL     1      26.387   7.567  23.565  0.00  0.00    +0.000 C 
ATOM     47  C   UNL     1      25.991   9.042  23.781  0.00  0.00    +0.000 C 
ATOM     48  C   UNL     1      25.650   9.456  22.388  0.00  0.00    +0.000 A 
ATOM     49  C   UNL     1      25.491  10.720  21.856  0.00  0.00    +0.000 A 
ATOM     50  C   UNL     1      24.932   9.674  19.751  0.00  0.00    +0.000 A 
ATOM     51  C   UNL     1      25.132  10.829  20.512  0.00  0.00    +0.000 A 
ENDBRANCH  42  43
ENDBRANCH  39  42
ENDBRANCH  36  40
ENDBRANCH   9  36
TORSDOF 13
ENDMDL
MODEL 5
REMARK minimizedAffinity -7.80167198
REMARK minimizedRMSD -1
REMARK  Name = 44137025
REMARK  15 active torsions:
REMARK  status: ('A' for Active; 'I' for Inactive)
REMARK    1  A    between atoms: S_2  and  C_24
REMARK    2  A    between atoms: S_2  and  C_37
REMARK    3  A    between atoms: O_6  and  C_30
REMARK    4  A    between atoms: O_9  and  N_16
REMARK    5  A    between atoms: O_9  and  C_41
REMARK    6  A    between atoms: O_10  and  C_46
REMARK    7  A    between atoms: N_13  and  CA_20
REMARK    8  A    between atoms: N_14  and  C_32
REMARK    9  A    between atoms: CA_22  and  C_30
REMARK   10  A    between atoms: C_31  and  C_38
REMARK   11  A    between atoms: C_32  and  C_36
REMARK   12  A    between atoms: C_38  and  C_40
REMARK   13  A    between atoms: C_41  and  C_44
REMARK   14  A    between atoms: C_41  and  C_45
REMARK   15  A    between atoms: C_41  and  C_46
REMARK                            x       y       z     vdW  Elec       q    Type
REMARK                         _______ _______ _______ _____ _____    ______ ____
ROOT
ATOM      1  S   UNL     1      17.048   3.430  22.700  0.00  0.00    +0.000 S 
ATOM      2  O   UNL     1      14.205   7.050  22.036  0.00  0.00    +0.000 OA
ATOM      3  N   UNL     1      14.827   4.877  22.715  0.00  0.00    +0.000 N 
ATOM      4  C   UNL     1      15.614   4.064  21.806  0.00  0.00    +0.000 C 
ATOM      5  CA  UNL     1      15.829   5.359  20.990  0.00  0.00    +0.000 C 
ATOM      6  C   UNL     1      14.774   5.986  21.948  0.00  0.00    +0.000 C 
ATOM      7  CA  UNL     1      14.371   4.455  23.924  0.00  0.00    +0.000 C 
ATOM      8  C   UNL     1      16.025   2.521  23.911  0.00  0.00    +0.000 C 
ATOM      9  C   UNL     1      14.877   3.337  24.499  0.00  0.00    +0.000 C 
ENDROOT
BRANCH   5  11
ATOM     10  O   UNL     1      17.943   5.379  18.937  0.00  0.00    +0.000 OA
ATOM     11  N   UNL     1      17.134   6.015  21.047  0.00  0.00    +0.000 N 
ATOM     12  C   UNL     1      18.049   5.951  20.010  0.00  0.00    +0.000 C 
ATOM     13  H   UNL     1      16.766   7.168  23.034  0.00  0.00    +0.000 HD
BRANCH  12  15
ATOM     14  N   UNL     1      19.392   7.981  20.050  0.00  0.00    +0.000 NA
ATOM     15  C   UNL     1      19.319   6.708  20.297  0.00  0.00    +0.000 C 
BRANCH  15  19
ATOM     16  S   UNL     1      22.825   5.120  21.322  0.00  0.00    +0.000 S 
ATOM     17  N   UNL     1      20.300   5.047  21.869  0.00  0.00    +0.000 NA
ATOM     18  N   UNL     1      21.650   3.590  23.152  0.00  0.00    +0.000 N 
ATOM     19  C   UNL     1      20.483   5.972  20.860  0.00  0.00    +0.000 A 
ATOM     20  C   UNL     1      21.782   6.149  20.432  0.00  0.00    +0.000 A 
ATOM     21  C   UNL     1      21.467   4.535  22.192  0.00  0.00    +0.000 A 
ATOM     22  H   UNL     1      17.718   3.736  18.619  0.00  0.00    +0.000 HD
ATOM     23  H   UNL     1      17.718   3.736  18.619  0.00  0.00    +0.000 HD
ENDBRANCH  15  19
BRANCH  14  24
ATOM     24  O   UNL     1      18.195   8.477  19.518  0.00  0.00    +0.000 OA
BRANCH  24  25
ATOM     25  C   UNL     1      18.059   9.831  19.921  0.00  0.00    +0.000 C 
ATOM     26  C   UNL     1      19.408  10.302  20.455  0.00  0.00    +0.000 C 
ATOM     27  C   UNL     1      16.959   9.902  20.977  0.00  0.00    +0.000 C 
BRANCH  25  29
ATOM     28  O   UNL     1      18.069  10.330  17.538  0.00  0.00    +0.000 OA
ATOM     29  C   UNL     1      17.666  10.596  18.664  0.00  0.00    +0.000 C 
BRANCH  29  30
ATOM     30  O   UNL     1      16.812  11.623  18.902  0.00  0.00    +0.000 OA
ATOM     31  H   UNL     1      23.447   9.096  19.621  0.00  0.00    +0.000 HD
ENDBRANCH  29  30
ENDBRANCH  25  29
ENDBRANCH  24  25
ENDBRANCH  14  24
ENDBRANCH  12  15
ENDBRANCH   5  11
BRANCH   7  33
ATOM     32  OXT UNL     1      13.574   6.105  25.439  0.00  0.00    +0.000 OA
ATOM     33  C   UNL     1      13.343   5.295  24.567  0.00  0.00    +0.000 C 
BRANCH  33  34
ATOM     34  O   UNL     1      12.141   5.010  24.032  0.00  0.00    +0.000 OA
ATOM     35  H   UNL     1      16.793   6.318  22.433  0.00  0.00    +0.000 HD
ENDBRANCH  33  34
ENDBRANCH   7  33
BRANCH   9  36
ATOM     36  S   UNL     1      14.268   2.715  26.028  0.00  0.00    +0.000 S 
BRANCH  36  40
ATOM     37  S   UNL     1      13.072   0.412  24.406  0.00  0.00    +0.000 S 
ATOM     38  N   UNL     1      11.646   2.171  25.651  0.00  0.00    +0.000 NA
ATOM     39  C   UNL     1      10.779   1.293  25.032  0.00  0.00    +0.000 A 
ATOM     40  C   UNL     1      12.881   1.805  25.390  0.00  0.00    +0.000 A 
ATOM     41  C   UNL     1      11.365   0.274  24.311  0.00  0.00    +0.000 A 
BRANCH  39  42
ATOM     42  C   UNL     1       9.327   1.512  25.191  0.00  0.00    +0.000 C 
BRANCH  42  43
ATOM     43  N   UNL     1       8.754   2.607  24.304  0.00  0.00    +0.000 N 
ATOM     44  C   UNL     1       7.621   3.220  24.636  0.00  0.00    +0.000 A 
ATOM     45  C   UNL     1       6.778   2.926  25.832  0.00  0.00    +0.000 C 
ATOM     46  C   UNL     1       5.899   4.189  25.864  0.00  0.00    +0.000 C 
ATOM     47  C   UNL     1       5.786   4.699  24.414  0.00  0.00    +0.000 C 
ATOM     48  C   UNL     1       7.072   4.211  23.835  0.00  0.00    +0.000 A 
ATOM     49  C   UNL     1       7.706   4.572  22.662  0.00  0.00    +0.000 A 
ATOM     50  C   UNL     1       9.409   2.938  23.178  0.00  0.00    +0.000 A 
ATOM     51  C   UNL     1       8.899   3.927  22.333  0.00  0.00    +0.000 A 
ENDBRANCH  42  43
ENDBRANCH  39  42
ENDBRANCH  36  40
ENDBRANCH   9  36
TORSDOF 13
ENDMDL
MODEL 6
REMARK minimizedAffinity -7.7396884
REMARK minimizedRMSD -1
REMARK  Name = 44137025
REMARK  15 active torsions:
REMARK  status: ('A' for Active; 'I' for Inactive)
REMARK    1  A    between atoms: S_2  and  C_24
REMARK    2  A    between atoms: S_2  and  C_37
REMARK    3  A    between atoms: O_6  and  C_30
REMARK    4  A    between atoms: O_9  and  N_16
REMARK    5  A    between atoms: O_9  and  C_41
REMARK    6  A    between atoms: O_10  and  C_46
REMARK    7  A    between atoms: N_13  and  CA_20
REMARK    8  A    between atoms: N_14  and  C_32
REMARK    9  A    between atoms: CA_22  and  C_30
REMARK   10  A    between atoms: C_31  and  C_38
REMARK   11  A    between atoms: C_32  and  C_36
REMARK   12  A    between atoms: C_38  and  C_40
REMARK   13  A    between atoms: C_41  and  C_44
REMARK   14  A    between atoms: C_41  and  C_45
REMARK   15  A    between atoms: C_41  and  C_46
REMARK                            x       y       z     vdW  Elec       q    Type
REMARK                         _______ _______ _______ _____ _____    ______ ____
ROOT
ATOM      1  S   UNL     1      17.773   5.207  23.927  0.00  0.00    +0.000 S 
ATOM      2  O   UNL     1      15.681   5.343  19.776  0.00  0.00    +0.000 OA
ATOM      3  N   UNL     1      15.896   4.889  22.082  0.00  0.00    +0.000 N 
ATOM      4  C   UNL     1      17.108   4.245  22.552  0.00  0.00    +0.000 C 
ATOM      5  CA  UNL     1      17.694   4.545  21.154  0.00  0.00    +0.000 C 
ATOM      6  C   UNL     1      16.247   4.982  20.782  0.00  0.00    +0.000 C 
ATOM      7  CA  UNL     1      14.839   5.210  22.874  0.00  0.00    +0.000 C 
ATOM      8  C   UNL     1      16.282   4.966  24.956  0.00  0.00    +0.000 C 
ATOM      9  C   UNL     1      14.967   5.219  24.223  0.00  0.00    +0.000 C 
ENDROOT
BRANCH   5  11
ATOM     10  O   UNL     1      19.205   5.341  18.752  0.00  0.00    +0.000 OA
ATOM     11  N   UNL     1      18.680   5.616  21.024  0.00  0.00    +0.000 N 
ATOM     12  C   UNL     1      19.328   5.896  19.833  0.00  0.00    +0.000 C 
ATOM     13  H   UNL     1      18.359   6.533  23.138  0.00  0.00    +0.000 HD
BRANCH  12  15
ATOM     14  N   UNL     1      19.900   8.258  19.700  0.00  0.00    +0.000 NA
ATOM     15  C   UNL     1      20.295   7.045  19.943  0.00  0.00    +0.000 C 
BRANCH  15  19
ATOM     16  S   UNL     1      23.838   5.609  21.061  0.00  0.00    +0.000 S 
ATOM     17  N   UNL     1      22.638   7.782  20.344  0.00  0.00    +0.000 NA
ATOM     18  N   UNL     1      24.937   8.020  20.838  0.00  0.00    +0.000 N 
ATOM     19  C   UNL     1      21.704   6.765  20.328  0.00  0.00    +0.000 A 
ATOM     20  C   UNL     1      22.168   5.516  20.687  0.00  0.00    +0.000 A 
ATOM     21  C   UNL     1      23.798   7.289  20.716  0.00  0.00    +0.000 A 
ATOM     22  H   UNL     1      19.436   9.110  22.979  0.00  0.00    +0.000 HD
ATOM     23  H   UNL     1      19.436   9.110  22.979  0.00  0.00    +0.000 HD
ENDBRANCH  15  19
BRANCH  14  24
ATOM     24  O   UNL     1      18.544   8.302  19.347  0.00  0.00    +0.000 OA
BRANCH  24  25
ATOM     25  C   UNL     1      17.937   9.368  20.062  0.00  0.00    +0.000 C 
ATOM     26  C   UNL     1      19.045  10.256  20.619  0.00  0.00    +0.000 C 
ATOM     27  C   UNL     1      17.069   8.763  21.163  0.00  0.00    +0.000 C 
BRANCH  25  29
ATOM     28  O   UNL     1      17.515  10.558  17.980  0.00  0.00    +0.000 OA
ATOM     29  C   UNL     1      17.090  10.116  19.042  0.00  0.00    +0.000 C 
BRANCH  29  30
ATOM     30  O   UNL     1      15.793  10.258  19.417  0.00  0.00    +0.000 OA
ATOM     31  H   UNL     1      22.571  12.186  20.541  0.00  0.00    +0.000 HD
ENDBRANCH  29  30
ENDBRANCH  25  29
ENDBRANCH  24  25
ENDBRANCH  14  24
ENDBRANCH  12  15
ENDBRANCH   5  11
BRANCH   7  33
ATOM     32  OXT UNL     1      13.157   6.704  22.106  0.00  0.00    +0.000 OA
ATOM     33  C   UNL     1      13.587   5.573  22.184  0.00  0.00    +0.000 C 
BRANCH  33  34
ATOM     34  O   UNL     1      13.026   4.462  21.672  0.00  0.00    +0.000 OA
ATOM     35  H   UNL     1      17.532   6.826  21.573  0.00  0.00    +0.000 HD
ENDBRANCH  33  34
ENDBRANCH   7  33
BRANCH   9  36
ATOM     36  S   UNL     1      13.609   5.559  25.289  0.00  0.00    +0.000 S 
BRANCH  36  40
ATOM     37  S   UNL     1      13.475   2.589  26.019  0.00  0.00    +0.000 S 
ATOM     38  N   UNL     1      11.724   3.773  24.531  0.00  0.00    +0.000 NA
ATOM     39  C   UNL     1      11.348   2.449  24.646  0.00  0.00    +0.000 A 
ATOM     40  C   UNL     1      12.831   3.961  25.214  0.00  0.00    +0.000 A 
ATOM     41  C   UNL     1      12.172   1.652  25.412  0.00  0.00    +0.000 A 
BRANCH  39  42
ATOM     42  C   UNL     1      10.121   2.007  23.954  0.00  0.00    +0.000 C 
BRANCH  42  43
ATOM     43  N   UNL     1       8.837   2.241  24.737  0.00  0.00    +0.000 N 
ATOM     44  C   UNL     1       8.004   3.220  24.389  0.00  0.00    +0.000 A 
ATOM     45  C   UNL     1       8.204   4.191  23.274  0.00  0.00    +0.000 C 
ATOM     46  C   UNL     1       6.776   4.749  23.138  0.00  0.00    +0.000 C 
ATOM     47  C   UNL     1       6.112   4.635  24.525  0.00  0.00    +0.000 C 
ATOM     48  C   UNL     1       6.836   3.461  25.097  0.00  0.00    +0.000 A 
ATOM     49  C   UNL     1       6.523   2.678  26.190  0.00  0.00    +0.000 A 
ATOM     50  C   UNL     1       8.564   1.448  25.786  0.00  0.00    +0.000 A 
ATOM     51  C   UNL     1       7.401   1.649  26.535  0.00  0.00    +0.000 A 
ENDBRANCH  42  43
ENDBRANCH  39  42
ENDBRANCH  36  40
ENDBRANCH   9  36
TORSDOF 13
ENDMDL
MODEL 7
REMARK minimizedAffinity -7.71477556
REMARK minimizedRMSD -1
REMARK  Name = 44137025
REMARK  15 active torsions:
REMARK  status: ('A' for Active; 'I' for Inactive)
REMARK    1  A    between atoms: S_2  and  C_24
REMARK    2  A    between atoms: S_2  and  C_37
REMARK    3  A    between atoms: O_6  and  C_30
REMARK    4  A    between atoms: O_9  and  N_16
REMARK    5  A    between atoms: O_9  and  C_41
REMARK    6  A    between atoms: O_10  and  C_46
REMARK    7  A    between atoms: N_13  and  CA_20
REMARK    8  A    between atoms: N_14  and  C_32
REMARK    9  A    between atoms: CA_22  and  C_30
REMARK   10  A    between atoms: C_31  and  C_38
REMARK   11  A    between atoms: C_32  and  C_36
REMARK   12  A    between atoms: C_38  and  C_40
REMARK   13  A    between atoms: C_41  and  C_44
REMARK   14  A    between atoms: C_41  and  C_45
REMARK   15  A    between atoms: C_41  and  C_46
REMARK                            x       y       z     vdW  Elec       q    Type
REMARK                         _______ _______ _______ _____ _____    ______ ____
ROOT
ATOM      1  S   UNL     1      21.197   3.980  20.031  0.00  0.00    +0.000 S 
ATOM      2  O   UNL     1      18.187   5.196  16.700  0.00  0.00    +0.000 OA
ATOM      3  N   UNL     1      19.240   3.766  18.255  0.00  0.00    +0.000 N 
ATOM      4  C   UNL     1      20.690   3.751  18.314  0.00  0.00    +0.000 C 
ATOM      5  CA  UNL     1      20.640   5.021  17.435  0.00  0.00    +0.000 C 
ATOM      6  C   UNL     1      19.118   4.723  17.311  0.00  0.00    +0.000 C 
ATOM      7  CA  UNL     1      18.432   2.969  19.004  0.00  0.00    +0.000 C 
ATOM      8  C   UNL     1      20.353   2.460  20.594  0.00  0.00    +0.000 C 
ATOM      9  C   UNL     1      18.923   2.310  20.082  0.00  0.00    +0.000 C 
ENDROOT
BRANCH   5  11
ATOM     10  O   UNL     1      20.487   7.699  16.213  0.00  0.00    +0.000 OA
ATOM     11  N   UNL     1      20.935   6.313  18.054  0.00  0.00    +0.000 N 
ATOM     12  C   UNL     1      20.825   7.512  17.371  0.00  0.00    +0.000 C 
ATOM     13  H   UNL     1      21.213   5.512  20.220  0.00  0.00    +0.000 HD
BRANCH  12  15
ATOM     14  N   UNL     1      20.238   9.464  18.701  0.00  0.00    +0.000 NA
ATOM     15  C   UNL     1      21.175   8.707  18.218  0.00  0.00    +0.000 C 
BRANCH  15  19
ATOM     16  S   UNL     1      25.115   9.294  18.239  0.00  0.00    +0.000 S 
ATOM     17  N   UNL     1      23.007   9.458  19.726  0.00  0.00    +0.000 NA
ATOM     18  N   UNL     1      25.030  10.088  20.775  0.00  0.00    +0.000 N 
ATOM     19  C   UNL     1      22.609   9.004  18.484  0.00  0.00    +0.000 A 
ATOM     20  C   UNL     1      23.610   8.853  17.547  0.00  0.00    +0.000 A 
ATOM     21  C   UNL     1      24.309   9.645  19.712  0.00  0.00    +0.000 A 
ATOM     22  H   UNL     1      20.948   5.697  20.477  0.00  0.00    +0.000 HD
ATOM     23  H   UNL     1      20.948   5.697  20.477  0.00  0.00    +0.000 HD
ENDBRANCH  15  19
BRANCH  14  24
ATOM     24  O   UNL     1      18.964   9.016  18.328  0.00  0.00    +0.000 OA
BRANCH  24  25
ATOM     25  C   UNL     1      18.089   9.201  19.430  0.00  0.00    +0.000 C 
ATOM     26  C   UNL     1      18.872   9.892  20.543  0.00  0.00    +0.000 C 
ATOM     27  C   UNL     1      17.566   7.831  19.853  0.00  0.00    +0.000 C 
BRANCH  25  29
ATOM     28  O   UNL     1      17.043  10.807  17.929  0.00  0.00    +0.000 OA
ATOM     29  C   UNL     1      16.962  10.087  18.917  0.00  0.00    +0.000 C 
BRANCH  29  30
ATOM     30  O   UNL     1      15.832  10.010  19.665  0.00  0.00    +0.000 OA
ATOM     31  H   UNL     1      22.596  12.255  19.289  0.00  0.00    +0.000 HD
ENDBRANCH  29  30
ENDBRANCH  25  29
ENDBRANCH  24  25
ENDBRANCH  14  24
ENDBRANCH  12  15
ENDBRANCH   5  11
BRANCH   7  33
ATOM     32  OXT UNL     1      16.579   2.119  17.782  0.00  0.00    +0.000 OA
ATOM     33  C   UNL     1      17.016   2.902  18.598  0.00  0.00    +0.000 C 
BRANCH  33  34
ATOM     34  O   UNL     1      16.318   3.835  19.272  0.00  0.00    +0.000 OA
ATOM     35  H   UNL     1      19.533   0.024  20.298  0.00  0.00    +0.000 HD
ENDBRANCH  33  34
ENDBRANCH   7  33
BRANCH   9  36
ATOM     36  S   UNL     1      17.932   1.214  21.038  0.00  0.00    +0.000 S 
BRANCH  36  40
ATOM     37  S   UNL     1      18.772   1.284  23.981  0.00  0.00    +0.000 S 
ATOM     38  N   UNL     1      17.678   3.283  22.761  0.00  0.00    +0.000 NA
ATOM     39  C   UNL     1      17.919   3.670  24.065  0.00  0.00    +0.000 A 
ATOM     40  C   UNL     1      18.087   2.044  22.603  0.00  0.00    +0.000 A 
ATOM     41  C   UNL     1      18.505   2.722  24.877  0.00  0.00    +0.000 A 
BRANCH  39  42
ATOM     42  C   UNL     1      17.536   5.036  24.473  0.00  0.00    +0.000 C 
BRANCH  42  43
ATOM     43  N   UNL     1      16.044   5.233  24.695  0.00  0.00    +0.000 N 
ATOM     44  C   UNL     1      15.405   6.250  24.120  0.00  0.00    +0.000 A 
ATOM     45  C   UNL     1      16.018   7.298  23.254  0.00  0.00    +0.000 C 
ATOM     46  C   UNL     1      14.754   7.889  22.604  0.00  0.00    +0.000 C 
ATOM     47  C   UNL     1      13.595   7.683  23.599  0.00  0.00    +0.000 C 
ATOM     48  C   UNL     1      14.048   6.457  24.321  0.00  0.00    +0.000 A 
ATOM     49  C   UNL     1      13.337   5.599  25.137  0.00  0.00    +0.000 A 
ATOM     50  C   UNL     1      15.387   4.368  25.486  0.00  0.00    +0.000 A 
ATOM     51  C   UNL     1      14.019   4.533  25.724  0.00  0.00    +0.000 A 
ENDBRANCH  42  43
ENDBRANCH  39  42
ENDBRANCH  36  40
ENDBRANCH   9  36
TORSDOF 13
ENDMDL
MODEL 8
REMARK minimizedAffinity -7.71208954
REMARK minimizedRMSD -1
REMARK  Name = 44137025
REMARK  15 active torsions:
REMARK  status: ('A' for Active; 'I' for Inactive)
REMARK    1  A    between atoms: S_2  and  C_24
REMARK    2  A    between atoms: S_2  and  C_37
REMARK    3  A    between atoms: O_6  and  C_30
REMARK    4  A    between atoms: O_9  and  N_16
REMARK    5  A    between atoms: O_9  and  C_41
REMARK    6  A    between atoms: O_10  and  C_46
REMARK    7  A    between atoms: N_13  and  CA_20
REMARK    8  A    between atoms: N_14  and  C_32
REMARK    9  A    between atoms: CA_22  and  C_30
REMARK   10  A    between atoms: C_31  and  C_38
REMARK   11  A    between atoms: C_32  and  C_36
REMARK   12  A    between atoms: C_38  and  C_40
REMARK   13  A    between atoms: C_41  and  C_44
REMARK   14  A    between atoms: C_41  and  C_45
REMARK   15  A    between atoms: C_41  and  C_46
REMARK                            x       y       z     vdW  Elec       q    Type
REMARK                         _______ _______ _______ _____ _____    ______ ____
ROOT
ATOM      1  S   UNL     1      20.157   4.932  20.226  0.00  0.00    +0.000 S 
ATOM      2  O   UNL     1      18.528   8.856  18.335  0.00  0.00    +0.000 OA
ATOM      3  N   UNL     1      20.139   7.225  18.895  0.00  0.00    +0.000 N 
ATOM      4  C   UNL     1      20.185   6.736  20.261  0.00  0.00    +0.000 C 
ATOM      5  CA  UNL     1      18.825   7.443  20.457  0.00  0.00    +0.000 C 
ATOM      6  C   UNL     1      19.082   8.050  19.047  0.00  0.00    +0.000 C 
ATOM      7  CA  UNL     1      20.999   6.846  17.913  0.00  0.00    +0.000 C 
ATOM      8  C   UNL     1      21.715   4.820  19.277  0.00  0.00    +0.000 C 
ATOM      9  C   UNL     1      21.782   5.751  18.069  0.00  0.00    +0.000 C 
ENDROOT
BRANCH   5  11
ATOM     10  O   UNL     1      17.380   6.549  22.865  0.00  0.00    +0.000 OA
ATOM     11  N   UNL     1      17.615   6.625  20.530  0.00  0.00    +0.000 N 
ATOM     12  C   UNL     1      17.026   6.268  21.731  0.00  0.00    +0.000 C 
ATOM     13  H   UNL     1      17.169   6.605  18.248  0.00  0.00    +0.000 HD
BRANCH  12  15
ATOM     14  N   UNL     1      14.614   5.941  21.768  0.00  0.00    +0.000 NA
ATOM     15  C   UNL     1      15.788   5.429  21.553  0.00  0.00    +0.000 C 
BRANCH  15  19
ATOM     16  S   UNL     1      16.374   1.512  21.128  0.00  0.00    +0.000 S 
ATOM     17  N   UNL     1      15.689   3.639  19.828  0.00  0.00    +0.000 NA
ATOM     18  N   UNL     1      15.736   1.650  18.550  0.00  0.00    +0.000 N 
ATOM     19  C   UNL     1      15.936   4.009  21.135  0.00  0.00    +0.000 A 
ATOM     20  C   UNL     1      16.318   2.995  21.987  0.00  0.00    +0.000 A 
ATOM     21  C   UNL     1      15.889   2.345  19.709  0.00  0.00    +0.000 A 
ATOM     22  H   UNL     1      18.726   6.749  19.593  0.00  0.00    +0.000 HD
ATOM     23  H   UNL     1      18.726   6.749  19.593  0.00  0.00    +0.000 HD
ENDBRANCH  15  19
BRANCH  14  24
ATOM     24  O   UNL     1      14.696   7.284  22.159  0.00  0.00    +0.000 OA
BRANCH  24  25
ATOM     25  C   UNL     1      13.539   7.595  22.920  0.00  0.00    +0.000 C 
ATOM     26  C   UNL     1      13.767   7.107  24.347  0.00  0.00    +0.000 C 
ATOM     27  C   UNL     1      12.343   6.916  22.258  0.00  0.00    +0.000 C 
BRANCH  25  29
ATOM     28  O   UNL     1      12.399   9.708  22.516  0.00  0.00    +0.000 OA
ATOM     29  C   UNL     1      13.409   9.111  22.869  0.00  0.00    +0.000 C 
BRANCH  29  30
ATOM     30  O   UNL     1      14.535   9.762  23.256  0.00  0.00    +0.000 OA
ATOM     31  H   UNL     1      11.389   5.737  18.274  0.00  0.00    +0.000 HD
ENDBRANCH  29  30
ENDBRANCH  25  29
ENDBRANCH  24  25
ENDBRANCH  14  24
ENDBRANCH  12  15
ENDBRANCH   5  11
BRANCH   7  33
ATOM     32  OXT UNL     1      20.341   7.406  15.699  0.00  0.00    +0.000 OA
ATOM     33  C   UNL     1      20.996   7.664  16.686  0.00  0.00    +0.000 C 
BRANCH  33  34
ATOM     34  O   UNL     1      21.823   8.712  16.851  0.00  0.00    +0.000 OA
ATOM     35  H   UNL     1      17.893   6.561  19.267  0.00  0.00    +0.000 HD
ENDBRANCH  33  34
ENDBRANCH   7  33
BRANCH   9  36
ATOM     36  S   UNL     1      22.959   5.263  16.855  0.00  0.00    +0.000 S 
BRANCH  36  40
ATOM     37  S   UNL     1      25.346   7.117  16.371  0.00  0.00    +0.000 S 
ATOM     38  N   UNL     1      24.615   6.313  18.717  0.00  0.00    +0.000 NA
ATOM     39  C   UNL     1      25.719   7.128  18.879  0.00  0.00    +0.000 A 
ATOM     40  C   UNL     1      24.329   6.235  17.437  0.00  0.00    +0.000 A 
ATOM     41  C   UNL     1      26.254   7.656  17.723  0.00  0.00    +0.000 A 
BRANCH  39  42
ATOM     42  C   UNL     1      26.222   7.362  20.247  0.00  0.00    +0.000 C 
BRANCH  42  43
ATOM     43  N   UNL     1      25.733   8.653  20.887  0.00  0.00    +0.000 N 
ATOM     44  C   UNL     1      25.872   8.852  22.196  0.00  0.00    +0.000 A 
ATOM     45  C   UNL     1      26.461   7.892  23.175  0.00  0.00    +0.000 C 
ATOM     46  C   UNL     1      26.707   8.834  24.367  0.00  0.00    +0.000 C 
ATOM     47  C   UNL     1      25.662   9.963  24.275  0.00  0.00    +0.000 C 
ATOM     48  C   UNL     1      25.420  10.015  22.803  0.00  0.00    +0.000 A 
ATOM     49  C   UNL     1      24.808  10.991  22.042  0.00  0.00    +0.000 A 
ATOM     50  C   UNL     1      25.154   9.583  20.109  0.00  0.00    +0.000 A 
ATOM     51  C   UNL     1      24.678  10.771  20.670  0.00  0.00    +0.000 A 
ENDBRANCH  42  43
ENDBRANCH  39  42
ENDBRANCH  36  40
ENDBRANCH   9  36
TORSDOF 13
ENDMDL
MODEL 9
REMARK minimizedAffinity -7.70069408
REMARK minimizedRMSD -1
REMARK  Name = 44137025
REMARK  15 active torsions:
REMARK  status: ('A' for Active; 'I' for Inactive)
REMARK    1  A    between atoms: S_2  and  C_24
REMARK    2  A    between atoms: S_2  and  C_37
REMARK    3  A    between atoms: O_6  and  C_30
REMARK    4  A    between atoms: O_9  and  N_16
REMARK    5  A    between atoms: O_9  and  C_41
REMARK    6  A    between atoms: O_10  and  C_46
REMARK    7  A    between atoms: N_13  and  CA_20
REMARK    8  A    between atoms: N_14  and  C_32
REMARK    9  A    between atoms: CA_22  and  C_30
REMARK   10  A    between atoms: C_31  and  C_38
REMARK   11  A    between atoms: C_32  and  C_36
REMARK   12  A    between atoms: C_38  and  C_40
REMARK   13  A    between atoms: C_41  and  C_44
REMARK   14  A    between atoms: C_41  and  C_45
REMARK   15  A    between atoms: C_41  and  C_46
REMARK                            x       y       z     vdW  Elec       q    Type
REMARK                         _______ _______ _______ _____ _____    ______ ____
ROOT
ATOM      1  S   UNL     1      14.199   3.882  21.344  0.00  0.00    +0.000 S 
ATOM      2  O   UNL     1      15.086   7.080  24.602  0.00  0.00    +0.000 OA
ATOM      3  N   UNL     1      13.970   5.259  23.598  0.00  0.00    +0.000 N 
ATOM      4  C   UNL     1      13.604   5.357  22.197  0.00  0.00    +0.000 C 
ATOM      5  CA  UNL     1      14.520   6.600  22.145  0.00  0.00    +0.000 C 
ATOM      6  C   UNL     1      14.597   6.451  23.693  0.00  0.00    +0.000 C 
ATOM      7  CA  UNL     1      13.669   4.204  24.400  0.00  0.00    +0.000 C 
ATOM      8  C   UNL     1      13.187   2.753  22.364  0.00  0.00    +0.000 C 
ATOM      9  C   UNL     1      13.261   3.027  23.864  0.00  0.00    +0.000 C 
ENDROOT
BRANCH   5  11
ATOM     10  O   UNL     1      16.799   8.464  22.277  0.00  0.00    +0.000 OA
ATOM     11  N   UNL     1      15.818   6.486  21.481  0.00  0.00    +0.000 N 
ATOM     12  C   UNL     1      16.816   7.435  21.622  0.00  0.00    +0.000 C 
ATOM     13  H   UNL     1      15.505   4.335  20.653  0.00  0.00    +0.000 HD
BRANCH  12  15
ATOM     14  N   UNL     1      18.340   7.729  19.747  0.00  0.00    +0.000 NA
ATOM     15  C   UNL     1      18.062   7.098  20.847  0.00  0.00    +0.000 C 
BRANCH  15  19
ATOM     16  S   UNL     1      20.763   4.257  21.556  0.00  0.00    +0.000 S 
ATOM     17  N   UNL     1      18.827   5.569  22.656  0.00  0.00    +0.000 NA
ATOM     18  N   UNL     1      19.870   3.965  24.044  0.00  0.00    +0.000 N 
ATOM     19  C   UNL     1      18.961   6.029  21.361  0.00  0.00    +0.000 A 
ATOM     20  C   UNL     1      19.956   5.438  20.611  0.00  0.00    +0.000 A 
ATOM     21  C   UNL     1      19.725   4.633  22.869  0.00  0.00    +0.000 A 
ATOM     22  H   UNL     1      14.916   5.021  20.824  0.00  0.00    +0.000 HD
ATOM     23  H   UNL     1      14.916   5.021  20.824  0.00  0.00    +0.000 HD
ENDBRANCH  15  19
BRANCH  14  24
ATOM     24  O   UNL     1      17.365   8.687  19.438  0.00  0.00    +0.000 OA
BRANCH  24  25
ATOM     25  C   UNL     1      18.025   9.902  19.115  0.00  0.00    +0.000 C 
ATOM     26  C   UNL     1      18.735   9.712  17.778  0.00  0.00    +0.000 C 
ATOM     27  C   UNL     1      18.995  10.226  20.247  0.00  0.00    +0.000 C 
BRANCH  25  29
ATOM     28  O   UNL     1      15.727  10.701  19.025  0.00  0.00    +0.000 OA
ATOM     29  C   UNL     1      16.926  10.951  19.013  0.00  0.00    +0.000 C 
BRANCH  29  30
ATOM     30  O   UNL     1      17.400  12.218  18.904  0.00  0.00    +0.000 OA
ATOM     31  H   UNL     1      16.578   5.867  15.756  0.00  0.00    +0.000 HD
ENDBRANCH  29  30
ENDBRANCH  25  29
ENDBRANCH  24  25
ENDBRANCH  14  24
ENDBRANCH  12  15
ENDBRANCH   5  11
BRANCH   7  33
ATOM     32  OXT UNL     1      13.004   4.889  26.576  0.00  0.00    +0.000 OA
ATOM     33  C   UNL     1      13.846   4.408  25.850  0.00  0.00    +0.000 C 
BRANCH  33  34
ATOM     34  O   UNL     1      15.070   3.979  26.209  0.00  0.00    +0.000 OA
ATOM     35  H   UNL     1      11.011   2.199  23.707  0.00  0.00    +0.000 HD
ENDBRANCH  33  34
ENDBRANCH   7  33
BRANCH   9  36
ATOM     36  S   UNL     1      12.793   1.657  24.865  0.00  0.00    +0.000 S 
BRANCH  36  40
ATOM     37  S   UNL     1      11.808  -0.045  22.520  0.00  0.00    +0.000 S 
ATOM     38  N   UNL     1      10.241   1.357  24.023  0.00  0.00    +0.000 NA
ATOM     39  C   UNL     1       9.458   0.725  23.077  0.00  0.00    +0.000 A 
ATOM     40  C   UNL     1      11.497   1.024  23.826  0.00  0.00    +0.000 A 
ATOM     41  C   UNL     1      10.128  -0.076  22.177  0.00  0.00    +0.000 A 
BRANCH  39  42
ATOM     42  C   UNL     1       8.000   0.955  23.108  0.00  0.00    +0.000 C 
BRANCH  42  43
ATOM     43  N   UNL     1       7.594   2.418  23.208  0.00  0.00    +0.000 N 
ATOM     44  C   UNL     1       6.985   2.876  24.299  0.00  0.00    +0.000 A 
ATOM     45  C   UNL     1       6.603   2.073  25.498  0.00  0.00    +0.000 C 
ATOM     46  C   UNL     1       6.342   3.201  26.511  0.00  0.00    +0.000 C 
ATOM     47  C   UNL     1       5.899   4.439  25.706  0.00  0.00    +0.000 C 
ATOM     48  C   UNL     1       6.593   4.203  24.406  0.00  0.00    +0.000 A 
ATOM     49  C   UNL     1       6.832   5.074  23.362  0.00  0.00    +0.000 A 
ATOM     50  C   UNL     1       7.857   3.236  22.175  0.00  0.00    +0.000 A 
ATOM     51  C   UNL     1       7.481   4.581  22.229  0.00  0.00    +0.000 A 
ENDBRANCH  42  43
ENDBRANCH  39  42
ENDBRANCH  36  40
ENDBRANCH   9  36
TORSDOF 13
ENDMDL
MODEL 10
REMARK minimizedAffinity -7.68253231
REMARK minimizedRMSD -1
REMARK  Name = 44137025
REMARK  15 active torsions:
REMARK  status: ('A' for Active; 'I' for Inactive)
REMARK    1  A    between atoms: S_2  and  C_24
REMARK    2  A    between atoms: S_2  and  C_37
REMARK    3  A    between atoms: O_6  and  C_30
REMARK    4  A    between atoms: O_9  and  N_16
REMARK    5  A    between atoms: O_9  and  C_41
REMARK    6  A    between atoms: O_10  and  C_46
REMARK    7  A    between atoms: N_13  and  CA_20
REMARK    8  A    between atoms: N_14  and  C_32
REMARK    9  A    between atoms: CA_22  and  C_30
REMARK   10  A    between atoms: C_31  and  C_38
REMARK   11  A    between atoms: C_32  and  C_36
REMARK   12  A    between atoms: C_38  and  C_40
REMARK   13  A    between atoms: C_41  and  C_44
REMARK   14  A    between atoms: C_41  and  C_45
REMARK   15  A    between atoms: C_41  and  C_46
REMARK                            x       y       z     vdW  Elec       q    Type
REMARK                         _______ _______ _______ _____ _____    ______ ____
ROOT
ATOM      1  S   UNL     1      19.055   6.499  20.206  0.00  0.00    +0.000 S 
ATOM      2  O   UNL     1      16.398  10.172  21.247  0.00  0.00    +0.000 OA
ATOM      3  N   UNL     1      18.247   9.021  20.339  0.00  0.00    +0.000 N 
ATOM      4  C   UNL     1      18.917   8.027  21.157  0.00  0.00    +0.000 C 
ATOM      5  CA  UNL     1      17.705   8.138  22.110  0.00  0.00    +0.000 C 
ATOM      6  C   UNL     1      17.278   9.343  21.221  0.00  0.00    +0.000 C 
ATOM      7  CA  UNL     1      18.643   9.380  19.089  0.00  0.00    +0.000 C 
ATOM      8  C   UNL     1      20.066   7.279  18.899  0.00  0.00    +0.000 C 
ATOM      9  C   UNL     1      19.522   8.614  18.398  0.00  0.00    +0.000 C 
ENDROOT
BRANCH   5  11
ATOM     10  O   UNL     1      17.849   5.594  23.590  0.00  0.00    +0.000 OA
ATOM     11  N   UNL     1      16.728   7.051  22.131  0.00  0.00    +0.000 N 
ATOM     12  C   UNL     1      16.910   5.896  22.871  0.00  0.00    +0.000 C 
ATOM     13  H   UNL     1      15.071   8.160  20.932  0.00  0.00    +0.000 HD
BRANCH  12  15
ATOM     14  N   UNL     1      15.706   4.122  21.718  0.00  0.00    +0.000 NA
ATOM     15  C   UNL     1      15.767   4.924  22.738  0.00  0.00    +0.000 C 
BRANCH  15  19
ATOM     16  S   UNL     1      12.731   4.255  25.229  0.00  0.00    +0.000 S 
ATOM     17  N   UNL     1      14.641   5.922  24.720  0.00  0.00    +0.000 NA
ATOM     18  N   UNL     1      13.279   6.487  26.568  0.00  0.00    +0.000 N 
ATOM     19  C   UNL     1      14.713   4.906  23.787  0.00  0.00    +0.000 A 
ATOM     20  C   UNL     1      13.762   3.913  23.903  0.00  0.00    +0.000 A 
ATOM     21  C   UNL     1      13.634   5.683  25.531  0.00  0.00    +0.000 A 
ATOM     22  H   UNL     1      14.421   7.894  20.846  0.00  0.00    +0.000 HD
ATOM     23  H   UNL     1      14.421   7.894  20.846  0.00  0.00    +0.000 HD
ENDBRANCH  15  19
BRANCH  14  24
ATOM     24  O   UNL     1      16.788   4.306  20.847  0.00  0.00    +0.000 OA
BRANCH  24  25
ATOM     25  C   UNL     1      17.064   3.064  20.218  0.00  0.00    +0.000 C 
ATOM     26  C   UNL     1      16.012   2.059  20.675  0.00  0.00    +0.000 C 
ATOM     27  C   UNL     1      18.479   2.642  20.607  0.00  0.00    +0.000 C 
BRANCH  25  29
ATOM     28  O   UNL     1      17.846   3.840  18.046  0.00  0.00    +0.000 OA
ATOM     29  C   UNL     1      16.960   3.329  18.722  0.00  0.00    +0.000 C 
BRANCH  29  30
ATOM     30  O   UNL     1      15.774   2.945  18.187  0.00  0.00    +0.000 OA
ATOM     31  H   UNL     1      19.192   7.573  22.409  0.00  0.00    +0.000 HD
ENDBRANCH  29  30
ENDBRANCH  25  29
ENDBRANCH  24  25
ENDBRANCH  14  24
ENDBRANCH  12  15
ENDBRANCH   5  11
BRANCH   7  33
ATOM     32  OXT UNL     1      17.051  10.621  17.833  0.00  0.00    +0.000 OA
ATOM     33  C   UNL     1      18.039  10.607  18.536  0.00  0.00    +0.000 C 
BRANCH  33  34
ATOM     34  O   UNL     1      18.756  11.673  18.937  0.00  0.00    +0.000 OA
ATOM     35  H   UNL     1      16.457   7.641  21.027  0.00  0.00    +0.000 HD
ENDBRANCH  33  34
ENDBRANCH   7  33
BRANCH   9  36
ATOM     36  S   UNL     1      20.115   9.076  16.807  0.00  0.00    +0.000 S 
BRANCH  36  40
ATOM     37  S   UNL     1      22.023   6.751  16.239  0.00  0.00    +0.000 S 
ATOM     38  N   UNL     1      22.723   8.896  17.500  0.00  0.00    +0.000 NA
ATOM     39  C   UNL     1      23.830   8.073  17.428  0.00  0.00    +0.000 A 
ATOM     40  C   UNL     1      21.713   8.302  16.906  0.00  0.00    +0.000 A 
ATOM     41  C   UNL     1      23.646   6.868  16.783  0.00  0.00    +0.000 A 
BRANCH  39  42
ATOM     42  C   UNL     1      25.092   8.541  18.035  0.00  0.00    +0.000 C 
BRANCH  42  43
ATOM     43  N   UNL     1      25.277   8.142  19.492  0.00  0.00    +0.000 N 
ATOM     44  C   UNL     1      25.238   9.061  20.454  0.00  0.00    +0.000 A 
ATOM     45  C   UNL     1      25.051  10.529  20.262  0.00  0.00    +0.000 C 
ATOM     46  C   UNL     1      24.692  10.949  21.698  0.00  0.00    +0.000 C 
ATOM     47  C   UNL     1      25.370   9.941  22.647  0.00  0.00    +0.000 C 
ATOM     48  C   UNL     1      25.419   8.722  21.787  0.00  0.00    +0.000 A 
ATOM     49  C   UNL     1      25.649   7.405  22.133  0.00  0.00    +0.000 A 
ATOM     50  C   UNL     1      25.486   6.848  19.788  0.00  0.00    +0.000 A 
ATOM     51  C   UNL     1      25.677   6.452  21.115  0.00  0.00    +0.000 A 
ENDBRANCH  42  43
ENDBRANCH  39  42
ENDBRANCH  36  40
ENDBRANCH   9  36
TORSDOF 13
ENDMDL
MODEL 11
REMARK minimizedAffinity -7.63240242
REMARK minimizedRMSD -1
REMARK  Name = 44137025
REMARK  15 active torsions:
REMARK  status: ('A' for Active; 'I' for Inactive)
REMARK    1  A    between atoms: S_2  and  C_24
REMARK    2  A    between atoms: S_2  and  C_37
REMARK    3  A    between atoms: O_6  and  C_30
REMARK    4  A    between atoms: O_9  and  N_16
REMARK    5  A    between atoms: O_9  and  C_41
REMARK    6  A    between atoms: O_10  and  C_46
REMARK    7  A    between atoms: N_13  and  CA_20
REMARK    8  A    between atoms: N_14  and  C_32
REMARK    9  A    between atoms: CA_22  and  C_30
REMARK   10  A    between atoms: C_31  and  C_38
REMARK   11  A    between atoms: C_32  and  C_36
REMARK   12  A    between atoms: C_38  and  C_40
REMARK   13  A    between atoms: C_41  and  C_44
REMARK   14  A    between atoms: C_41  and  C_45
REMARK   15  A    between atoms: C_41  and  C_46
REMARK                            x       y       z     vdW  Elec       q    Type
REMARK                         _______ _______ _______ _____ _____    ______ ____
ROOT
ATOM      1  S   UNL     1      19.096   6.486  20.081  0.00  0.00    +0.000 S 
ATOM      2  O   UNL     1      16.355  10.067  21.214  0.00  0.00    +0.000 OA
ATOM      3  N   UNL     1      18.238   8.985  20.292  0.00  0.00    +0.000 N 
ATOM      4  C   UNL     1      18.916   7.976  21.084  0.00  0.00    +0.000 C 
ATOM      5  CA  UNL     1      17.690   8.030  22.023  0.00  0.00    +0.000 C 
ATOM      6  C   UNL     1      17.251   9.257  21.172  0.00  0.00    +0.000 C 
ATOM      7  CA  UNL     1      18.642   9.397  19.061  0.00  0.00    +0.000 C 
ATOM      8  C   UNL     1      20.109   7.331  18.816  0.00  0.00    +0.000 C 
ATOM      9  C   UNL     1      19.545   8.672  18.355  0.00  0.00    +0.000 C 
ENDROOT
BRANCH   5  11
ATOM     10  O   UNL     1      17.844   5.455  23.448  0.00  0.00    +0.000 OA
ATOM     11  N   UNL     1      16.734   6.924  21.992  0.00  0.00    +0.000 N 
ATOM     12  C   UNL     1      16.919   5.756  22.711  0.00  0.00    +0.000 C 
ATOM     13  H   UNL     1      15.088   8.029  20.776  0.00  0.00    +0.000 HD
BRANCH  12  15
ATOM     14  N   UNL     1      14.810   4.731  23.364  0.00  0.00    +0.000 NA
ATOM     15  C   UNL     1      15.800   4.766  22.524  0.00  0.00    +0.000 C 
BRANCH  15  19
ATOM     16  S   UNL     1      15.867   2.862  19.025  0.00  0.00    +0.000 S 
ATOM     17  N   UNL     1      15.989   2.472  21.578  0.00  0.00    +0.000 NA
ATOM     18  N   UNL     1      16.129   0.518  20.254  0.00  0.00    +0.000 N 
ATOM     19  C   UNL     1      15.853   3.830  21.368  0.00  0.00    +0.000 A 
ATOM     20  C   UNL     1      15.771   4.232  20.052  0.00  0.00    +0.000 A 
ATOM     21  C   UNL     1      16.008   1.863  20.413  0.00  0.00    +0.000 A 
ATOM     22  H   UNL     1      12.445   3.637  23.821  0.00  0.00    +0.000 HD
ATOM     23  H   UNL     1      12.445   3.637  23.821  0.00  0.00    +0.000 HD
ENDBRANCH  15  19
BRANCH  14  24
ATOM     24  O   UNL     1      14.957   5.685  24.380  0.00  0.00    +0.000 OA
BRANCH  24  25
ATOM     25  C   UNL     1      13.677   6.229  24.663  0.00  0.00    +0.000 C 
ATOM     26  C   UNL     1      13.614   6.535  26.156  0.00  0.00    +0.000 C 
ATOM     27  C   UNL     1      12.625   5.210  24.234  0.00  0.00    +0.000 C 
BRANCH  25  29
ATOM     28  O   UNL     1      14.359   8.445  23.919  0.00  0.00    +0.000 OA
ATOM     29  C   UNL     1      13.580   7.503  23.835  0.00  0.00    +0.000 C 
BRANCH  29  30
ATOM     30  O   UNL     1      12.530   7.509  22.974  0.00  0.00    +0.000 OA
ATOM     31  H   UNL     1      14.669   7.822  29.775  0.00  0.00    +0.000 HD
ENDBRANCH  29  30
ENDBRANCH  25  29
ENDBRANCH  24  25
ENDBRANCH  14  24
ENDBRANCH  12  15
ENDBRANCH   5  11
BRANCH   7  33
ATOM     32  OXT UNL     1      17.025  10.652  17.853  0.00  0.00    +0.000 OA
ATOM     33  C   UNL     1      18.022  10.630  18.543  0.00  0.00    +0.000 C 
BRANCH  33  34
ATOM     34  O   UNL     1      18.736  11.692  18.959  0.00  0.00    +0.000 OA
ATOM     35  H   UNL     1      16.496   7.596  20.987  0.00  0.00    +0.000 HD
ENDBRANCH  33  34
ENDBRANCH   7  33
BRANCH   9  36
ATOM     36  S   UNL     1      20.150   9.202  16.790  0.00  0.00    +0.000 S 
BRANCH  36  40
ATOM     37  S   UNL     1      23.090   8.593  17.384  0.00  0.00    +0.000 S 
ATOM     38  N   UNL     1      21.524   6.972  16.119  0.00  0.00    +0.000 NA
ATOM     39  C   UNL     1      22.766   6.373  16.202  0.00  0.00    +0.000 A 
ATOM     40  C   UNL     1      21.578   8.145  16.708  0.00  0.00    +0.000 A 
ATOM     41  C   UNL     1      23.743   7.098  16.852  0.00  0.00    +0.000 A 
BRANCH  39  42
ATOM     42  C   UNL     1      22.941   5.035  15.603  0.00  0.00    +0.000 C 
BRANCH  42  43
ATOM     43  N   UNL     1      22.179   3.924  16.310  0.00  0.00    +0.000 N 
ATOM     44  C   UNL     1      21.359   3.128  15.627  0.00  0.00    +0.000 A 
ATOM     45  C   UNL     1      21.058   3.218  14.168  0.00  0.00    +0.000 C 
ATOM     46  C   UNL     1      20.416   1.839  13.936  0.00  0.00    +0.000 C 
ATOM     47  C   UNL     1      19.773   1.408  15.269  0.00  0.00    +0.000 C 
ATOM     48  C   UNL     1      20.643   2.118  16.252  0.00  0.00    +0.000 A 
ATOM     49  C   UNL     1      20.773   1.929  17.614  0.00  0.00    +0.000 A 
ATOM     50  C   UNL     1      22.344   3.764  17.634  0.00  0.00    +0.000 A 
ATOM     51  C   UNL     1      21.645   2.764  18.314  0.00  0.00    +0.000 A 
ENDBRANCH  42  43
ENDBRANCH  39  42
ENDBRANCH  36  40
ENDBRANCH   9  36
TORSDOF 13
ENDMDL
MODEL 12
REMARK minimizedAffinity -7.44775343
REMARK minimizedRMSD -1
REMARK  Name = 44137025
REMARK  15 active torsions:
REMARK  status: ('A' for Active; 'I' for Inactive)
REMARK    1  A    between atoms: S_2  and  C_24
REMARK    2  A    between atoms: S_2  and  C_37
REMARK    3  A    between atoms: O_6  and  C_30
REMARK    4  A    between atoms: O_9  and  N_16
REMARK    5  A    between atoms: O_9  and  C_41
REMARK    6  A    between atoms: O_10  and  C_46
REMARK    7  A    between atoms: N_13  and  CA_20
REMARK    8  A    between atoms: N_14  and  C_32
REMARK    9  A    between atoms: CA_22  and  C_30
REMARK   10  A    between atoms: C_31  and  C_38
REMARK   11  A    between atoms: C_32  and  C_36
REMARK   12  A    between atoms: C_38  and  C_40
REMARK   13  A    between atoms: C_41  and  C_44
REMARK   14  A    between atoms: C_41  and  C_45
REMARK   15  A    between atoms: C_41  and  C_46
REMARK                            x       y       z     vdW  Elec       q    Type
REMARK                         _______ _______ _______ _____ _____    ______ ____
ROOT
ATOM      1  S   UNL     1      20.967   3.969  20.865  0.00  0.00    +0.000 S 
ATOM      2  O   UNL     1      17.056   4.644  18.441  0.00  0.00    +0.000 OA
ATOM      3  N   UNL     1      18.587   3.477  19.806  0.00  0.00    +0.000 N 
ATOM      4  C   UNL     1      19.989   3.473  19.431  0.00  0.00    +0.000 C 
ATOM      5  CA  UNL     1      19.622   4.590  18.428  0.00  0.00    +0.000 C 
ATOM      6  C   UNL     1      18.147   4.274  18.810  0.00  0.00    +0.000 C 
ATOM      7  CA  UNL     1      18.074   2.807  20.872  0.00  0.00    +0.000 C 
ATOM      8  C   UNL     1      20.400   2.555  21.874  0.00  0.00    +0.000 C 
ATOM      9  C   UNL     1      18.892   2.325  21.840  0.00  0.00    +0.000 C 
ENDROOT
BRANCH   5  11
ATOM     10  O   UNL     1      19.230   7.002  16.781  0.00  0.00    +0.000 OA
ATOM     11  N   UNL     1      20.023   5.963  18.730  0.00  0.00    +0.000 N 
ATOM     12  C   UNL     1      19.782   7.020  17.870  0.00  0.00    +0.000 C 
ATOM     13  H   UNL     1      20.710   5.563  20.917  0.00  0.00    +0.000 HD
BRANCH  12  15
ATOM     14  N   UNL     1      19.447   9.211  18.876  0.00  0.00    +0.000 NA
ATOM     15  C   UNL     1      20.282   8.338  18.400  0.00  0.00    +0.000 C 
BRANCH  15  19
ATOM     16  S   UNL     1      24.112   9.247  19.008  0.00  0.00    +0.000 S 
ATOM     17  N   UNL     1      22.446   8.489  17.182  0.00  0.00    +0.000 NA
ATOM     18  N   UNL     1      24.678   8.771  16.453  0.00  0.00    +0.000 N 
ATOM     19  C   UNL     1      21.742   8.620  18.363  0.00  0.00    +0.000 A 
ATOM     20  C   UNL     1      22.474   9.021  19.460  0.00  0.00    +0.000 A 
ATOM     21  C   UNL     1      23.706   8.794  17.404  0.00  0.00    +0.000 A 
ATOM     22  H   UNL     1      19.231  11.290  16.304  0.00  0.00    +0.000 HD
ATOM     23  H   UNL     1      19.231  11.290  16.304  0.00  0.00    +0.000 HD
ENDBRANCH  15  19
BRANCH  14  24
ATOM     24  O   UNL     1      18.124   8.753  18.812  0.00  0.00    +0.000 OA
BRANCH  24  25
ATOM     25  C   UNL     1      17.425   9.263  19.937  0.00  0.00    +0.000 C 
ATOM     26  C   UNL     1      18.454   9.775  20.940  0.00  0.00    +0.000 C 
ATOM     27  C   UNL     1      16.567   8.137  20.509  0.00  0.00    +0.000 C 
BRANCH  25  29
ATOM     28  O   UNL     1      16.999  11.460  18.980  0.00  0.00    +0.000 OA
ATOM     29  C   UNL     1      16.561  10.398  19.405  0.00  0.00    +0.000 C 
BRANCH  29  30
ATOM     30  O   UNL     1      15.231  10.127  19.442  0.00  0.00    +0.000 OA
ATOM     31  H   UNL     1      21.130  11.579  23.187  0.00  0.00    +0.000 HD
ENDBRANCH  29  30
ENDBRANCH  25  29
ENDBRANCH  24  25
ENDBRANCH  14  24
ENDBRANCH  12  15
ENDBRANCH   5  11
BRANCH   7  33
ATOM     32  OXT UNL     1      15.997   1.708  20.518  0.00  0.00    +0.000 OA
ATOM     33  C   UNL     1      16.606   2.675  20.922  0.00  0.00    +0.000 C 
BRANCH  33  34
ATOM     34  O   UNL     1      16.081   3.783  21.477  0.00  0.00    +0.000 OA
ATOM     35  H   UNL     1      19.640   0.313  22.571  0.00  0.00    +0.000 HD
ENDBRANCH  33  34
ENDBRANCH   7  33
BRANCH   9  36
ATOM     36  S   UNL     1      18.280   1.392  23.201  0.00  0.00    +0.000 S 
BRANCH  36  40
ATOM     37  S   UNL     1      18.772   4.013  24.704  0.00  0.00    +0.000 S 
ATOM     38  N   UNL     1      16.471   2.840  24.595  0.00  0.00    +0.000 NA
ATOM     39  C   UNL     1      16.320   3.986  25.352  0.00  0.00    +0.000 A 
ATOM     40  C   UNL     1      17.721   2.752  24.201  0.00  0.00    +0.000 A 
ATOM     41  C   UNL     1      17.456   4.750  25.522  0.00  0.00    +0.000 A 
BRANCH  39  42
ATOM     42  C   UNL     1      14.986   4.291  25.903  0.00  0.00    +0.000 C 
BRANCH  42  43
ATOM     43  N   UNL     1      13.882   4.399  24.861  0.00  0.00    +0.000 N 
ATOM     44  C   UNL     1      13.695   5.535  24.192  0.00  0.00    +0.000 A 
ATOM     45  C   UNL     1      14.465   6.800  24.373  0.00  0.00    +0.000 C 
ATOM     46  C   UNL     1      14.069   7.547  23.087  0.00  0.00    +0.000 C 
ATOM     47  C   UNL     1      12.670   7.042  22.682  0.00  0.00    +0.000 C 
ATOM     48  C   UNL     1      12.686   5.661  23.249  0.00  0.00    +0.000 A 
ATOM     49  C   UNL     1      11.851   4.591  22.992  0.00  0.00    +0.000 A 
ATOM     50  C   UNL     1      13.100   3.331  24.632  0.00  0.00    +0.000 A 
ATOM     51  C   UNL     1      12.066   3.405  23.694  0.00  0.00    +0.000 A 
ENDBRANCH  42  43
ENDBRANCH  39  42
ENDBRANCH  36  40
ENDBRANCH   9  36
TORSDOF 13
ENDMDL
MODEL 13
REMARK minimizedAffinity -7.37669039
REMARK minimizedRMSD -1
REMARK  Name = 44137025
REMARK  15 active torsions:
REMARK  status: ('A' for Active; 'I' for Inactive)
REMARK    1  A    between atoms: S_2  and  C_24
REMARK    2  A    between atoms: S_2  and  C_37
REMARK    3  A    between atoms: O_6  and  C_30
REMARK    4  A    between atoms: O_9  and  N_16
REMARK    5  A    between atoms: O_9  and  C_41
REMARK    6  A    between atoms: O_10  and  C_46
REMARK    7  A    between atoms: N_13  and  CA_20
REMARK    8  A    between atoms: N_14  and  C_32
REMARK    9  A    between atoms: CA_22  and  C_30
REMARK   10  A    between atoms: C_31  and  C_38
REMARK   11  A    between atoms: C_32  and  C_36
REMARK   12  A    between atoms: C_38  and  C_40
REMARK   13  A    between atoms: C_41  and  C_44
REMARK   14  A    between atoms: C_41  and  C_45
REMARK   15  A    between atoms: C_41  and  C_46
REMARK                            x       y       z     vdW  Elec       q    Type
REMARK                         _______ _______ _______ _____ _____    ______ ____
ROOT
ATOM      1  S   UNL     1      20.060   6.761  20.947  0.00  0.00    +0.000 S 
ATOM      2  O   UNL     1      16.933   9.568  18.954  0.00  0.00    +0.000 OA
ATOM      3  N   UNL     1      19.077   8.816  19.589  0.00  0.00    +0.000 N 
ATOM      4  C   UNL     1      19.286   8.392  20.961  0.00  0.00    +0.000 C 
ATOM      5  CA  UNL     1      17.748   8.424  21.102  0.00  0.00    +0.000 C 
ATOM      6  C   UNL     1      17.760   9.088  19.694  0.00  0.00    +0.000 C 
ATOM      7  CA  UNL     1      20.051   8.860  18.642  0.00  0.00    +0.000 C 
ATOM      8  C   UNL     1      21.539   7.354  20.054  0.00  0.00    +0.000 C 
ATOM      9  C   UNL     1      21.231   8.223  18.837  0.00  0.00    +0.000 C 
ENDROOT
BRANCH   5  11
ATOM     10  O   UNL     1      16.926   6.878  23.473  0.00  0.00    +0.000 OA
ATOM     11  N   UNL     1      17.022   7.155  21.144  0.00  0.00    +0.000 N 
ATOM     12  C   UNL     1      16.691   6.522  22.330  0.00  0.00    +0.000 C 
ATOM     13  H   UNL     1      16.549   7.043  18.869  0.00  0.00    +0.000 HD
BRANCH  12  15
ATOM     14  N   UNL     1      14.649   5.242  21.981  0.00  0.00    +0.000 NA
ATOM     15  C   UNL     1      15.941   5.233  22.120  0.00  0.00    +0.000 C 
BRANCH  15  19
ATOM     16  S   UNL     1      17.323   1.500  21.990  0.00  0.00    +0.000 S 
ATOM     17  N   UNL     1      18.083   3.967  22.121  0.00  0.00    +0.000 NA
ATOM     18  N   UNL     1      19.832   2.376  22.099  0.00  0.00    +0.000 N 
ATOM     19  C   UNL     1      16.702   3.956  22.082  0.00  0.00    +0.000 A 
ATOM     20  C   UNL     1      16.111   2.712  22.009  0.00  0.00    +0.000 A 
ATOM     21  C   UNL     1      18.519   2.727  22.077  0.00  0.00    +0.000 A 
ATOM     22  H   UNL     1      16.810   6.131  25.677  0.00  0.00    +0.000 HD
ATOM     23  H   UNL     1      16.810   6.131  25.677  0.00  0.00    +0.000 HD
ENDBRANCH  15  19
BRANCH  14  24
ATOM     24  O   UNL     1      14.128   6.541  22.056  0.00  0.00    +0.000 OA
BRANCH  24  25
ATOM     25  C   UNL     1      13.051   6.533  22.980  0.00  0.00    +0.000 C 
ATOM     26  C   UNL     1      12.877   5.105  23.489  0.00  0.00    +0.000 C 
ATOM     27  C   UNL     1      11.807   7.048  22.260  0.00  0.00    +0.000 C 
BRANCH  25  29
ATOM     28  O   UNL     1      13.980   7.109  25.156  0.00  0.00    +0.000 OA
ATOM     29  C   UNL     1      13.466   7.472  24.104  0.00  0.00    +0.000 C 
BRANCH  29  30
ATOM     30  O   UNL     1      13.213   8.778  23.836  0.00  0.00    +0.000 OA
ATOM     31  H   UNL     1      10.483   2.365  25.366  0.00  0.00    +0.000 HD
ENDBRANCH  29  30
ENDBRANCH  25  29
ENDBRANCH  24  25
ENDBRANCH  14  24
ENDBRANCH  12  15
ENDBRANCH   5  11
BRANCH   7  33
ATOM     32  OXT UNL     1      19.795  10.803  17.296  0.00  0.00    +0.000 OA
ATOM     33  C   UNL     1      19.732   9.597  17.405  0.00  0.00    +0.000 C 
BRANCH  33  34
ATOM     34  O   UNL     1      19.368   8.721  16.450  0.00  0.00    +0.000 OA
ATOM     35  H   UNL     1      23.239   9.424  19.679  0.00  0.00    +0.000 HD
ENDBRANCH  33  34
ENDBRANCH   7  33
BRANCH   9  36
ATOM     36  S   UNL     1      22.546   8.311  17.671  0.00  0.00    +0.000 S 
BRANCH  36  40
ATOM     37  S   UNL     1      23.846   5.558  17.353  0.00  0.00    +0.000 S 
ATOM     38  N   UNL     1      21.454   6.110  16.542  0.00  0.00    +0.000 NA
ATOM     39  C   UNL     1      21.704   4.787  16.235  0.00  0.00    +0.000 A 
ATOM     40  C   UNL     1      22.512   6.617  17.133  0.00  0.00    +0.000 A 
ATOM     41  C   UNL     1      22.946   4.308  16.596  0.00  0.00    +0.000 A 
BRANCH  39  42
ATOM     42  C   UNL     1      20.645   4.011  15.561  0.00  0.00    +0.000 C 
BRANCH  42  43
ATOM     43  N   UNL     1      19.798   3.157  16.494  0.00  0.00    +0.000 N 
ATOM     44  C   UNL     1      19.736   1.838  16.331  0.00  0.00    +0.000 A 
ATOM     45  C   UNL     1      20.415   1.050  15.261  0.00  0.00    +0.000 C 
ATOM     46  C   UNL     1      20.297  -0.368  15.849  0.00  0.00    +0.000 C 
ATOM     47  C   UNL     1      19.035  -0.387  16.734  0.00  0.00    +0.000 C 
ATOM     48  C   UNL     1      18.959   1.042  17.160  0.00  0.00    +0.000 A 
ATOM     49  C   UNL     1      18.228   1.622  18.178  0.00  0.00    +0.000 A 
ATOM     50  C   UNL     1      19.112   3.760  17.480  0.00  0.00    +0.000 A 
ATOM     51  C   UNL     1      18.311   3.005  18.343  0.00  0.00    +0.000 A 
ENDBRANCH  42  43
ENDBRANCH  39  42
ENDBRANCH  36  40
ENDBRANCH   9  36
TORSDOF 13
ENDMDL
MODEL 14
REMARK minimizedAffinity -7.36243391
REMARK minimizedRMSD -1
REMARK  Name = 44137025
REMARK  15 active torsions:
REMARK  status: ('A' for Active; 'I' for Inactive)
REMARK    1  A    between atoms: S_2  and  C_24
REMARK    2  A    between atoms: S_2  and  C_37
REMARK    3  A    between atoms: O_6  and  C_30
REMARK    4  A    between atoms: O_9  and  N_16
REMARK    5  A    between atoms: O_9  and  C_41
REMARK    6  A    between atoms: O_10  and  C_46
REMARK    7  A    between atoms: N_13  and  CA_20
REMARK    8  A    between atoms: N_14  and  C_32
REMARK    9  A    between atoms: CA_22  and  C_30
REMARK   10  A    between atoms: C_31  and  C_38
REMARK   11  A    between atoms: C_32  and  C_36
REMARK   12  A    between atoms: C_38  and  C_40
REMARK   13  A    between atoms: C_41  and  C_44
REMARK   14  A    between atoms: C_41  and  C_45
REMARK   15  A    between atoms: C_41  and  C_46
REMARK                            x       y       z     vdW  Elec       q    Type
REMARK                         _______ _______ _______ _____ _____    ______ ____
ROOT
ATOM      1  S   UNL     1      15.808   5.520  20.858  0.00  0.00    +0.000 S 
ATOM      2  O   UNL     1      13.443   7.034  24.565  0.00  0.00    +0.000 OA
ATOM      3  N   UNL     1      15.076   7.093  22.863  0.00  0.00    +0.000 N 
ATOM      4  C   UNL     1      15.870   5.902  22.621  0.00  0.00    +0.000 C 
ATOM      5  CA  UNL     1      14.856   5.163  23.523  0.00  0.00    +0.000 C 
ATOM      6  C   UNL     1      14.291   6.579  23.833  0.00  0.00    +0.000 C 
ATOM      7  CA  UNL     1      15.240   8.273  22.208  0.00  0.00    +0.000 C 
ATOM      8  C   UNL     1      16.573   7.109  20.379  0.00  0.00    +0.000 C 
ATOM      9  C   UNL     1      15.966   8.330  21.065  0.00  0.00    +0.000 C 
ENDROOT
BRANCH   5  11
ATOM     10  O   UNL     1      14.108   2.431  24.339  0.00  0.00    +0.000 OA
ATOM     11  N   UNL     1      13.883   4.269  22.896  0.00  0.00    +0.000 N 
ATOM     12  C   UNL     1      13.617   2.998  23.376  0.00  0.00    +0.000 C 
ATOM     13  H   UNL     1      13.034   5.819  21.383  0.00  0.00    +0.000 HD
BRANCH  12  15
ATOM     14  N   UNL     1      12.928   1.525  21.564  0.00  0.00    +0.000 NA
ATOM     15  C   UNL     1      12.575   2.270  22.568  0.00  0.00    +0.000 C 
BRANCH  15  19
ATOM     16  S   UNL     1       8.969   2.561  24.235  0.00  0.00    +0.000 S 
ATOM     17  N   UNL     1      10.196   2.677  21.963  0.00  0.00    +0.000 NA
ATOM     18  N   UNL     1       7.858   3.012  21.861  0.00  0.00    +0.000 N 
ATOM     19  C   UNL     1      11.142   2.424  22.937  0.00  0.00    +0.000 A 
ATOM     20  C   UNL     1      10.668   2.328  24.228  0.00  0.00    +0.000 A 
ATOM     21  C   UNL     1       9.015   2.768  22.532  0.00  0.00    +0.000 A 
ATOM     22  H   UNL     1      12.182  -0.992  20.719  0.00  0.00    +0.000 HD
ATOM     23  H   UNL     1      12.182  -0.992  20.719  0.00  0.00    +0.000 HD
ENDBRANCH  15  19
BRANCH  14  24
ATOM     24  O   UNL     1      14.318   1.522  21.383  0.00  0.00    +0.000 OA
BRANCH  24  25
ATOM     25  C   UNL     1      14.692   0.260  20.853  0.00  0.00    +0.000 C 
ATOM     26  C   UNL     1      13.422  -0.561  20.647  0.00  0.00    +0.000 C 
ATOM     27  C   UNL     1      15.655  -0.398  21.837  0.00  0.00    +0.000 C 
BRANCH  25  29
ATOM     28  O   UNL     1      16.591   0.557  19.359  0.00  0.00    +0.000 OA
ATOM     29  C   UNL     1      15.377   0.557  19.527  0.00  0.00    +0.000 C 
BRANCH  29  30
ATOM     30  O   UNL     1      14.509   0.831  18.520  0.00  0.00    +0.000 OA
ATOM     31  H   UNL     1      17.440   3.052  24.635  0.00  0.00    +0.000 HD
ENDBRANCH  29  30
ENDBRANCH  25  29
ENDBRANCH  24  25
ENDBRANCH  14  24
ENDBRANCH  12  15
ENDBRANCH   5  11
BRANCH   7  33
ATOM     32  OXT UNL     1      13.369   9.643  22.726  0.00  0.00    +0.000 OA
ATOM     33  C   UNL     1      14.563   9.447  22.789  0.00  0.00    +0.000 C 
BRANCH  33  34
ATOM     34  O   UNL     1      15.479  10.236  23.381  0.00  0.00    +0.000 OA
ATOM     35  H   UNL     1      14.049   5.352  23.477  0.00  0.00    +0.000 HD
ENDBRANCH  33  34
ENDBRANCH   7  33
BRANCH   9  36
ATOM     36  S   UNL     1      16.264   9.845  20.221  0.00  0.00    +0.000 S 
BRANCH  36  40
ATOM     37  S   UNL     1      19.243   9.352  20.726  0.00  0.00    +0.000 S 
ATOM     38  N   UNL     1      18.169   9.321  18.375  0.00  0.00    +0.000 NA
ATOM     39  C   UNL     1      19.517   9.062  18.222  0.00  0.00    +0.000 A 
ATOM     40  C   UNL     1      17.911   9.491  19.652  0.00  0.00    +0.000 A 
ATOM     41  C   UNL     1      20.262   9.039  19.383  0.00  0.00    +0.000 A 
BRANCH  39  42
ATOM     42  C   UNL     1      20.038   8.836  16.860  0.00  0.00    +0.000 C 
BRANCH  42  43
ATOM     43  N   UNL     1      20.524   7.418  16.598  0.00  0.00    +0.000 N 
ATOM     44  C   UNL     1      21.819   7.172  16.416  0.00  0.00    +0.000 A 
ATOM     45  C   UNL     1      22.916   8.184  16.410  0.00  0.00    +0.000 C 
ATOM     46  C   UNL     1      24.139   7.264  16.570  0.00  0.00    +0.000 C 
ATOM     47  C   UNL     1      23.762   5.900  15.956  0.00  0.00    +0.000 C 
ATOM     48  C   UNL     1      22.283   5.890  16.161  0.00  0.00    +0.000 A 
ATOM     49  C   UNL     1      21.390   4.840  16.088  0.00  0.00    +0.000 A 
ATOM     50  C   UNL     1      19.623   6.423  16.547  0.00  0.00    +0.000 A 
ATOM     51  C   UNL     1      20.036   5.112  16.291  0.00  0.00    +0.000 A 
ENDBRANCH  42  43
ENDBRANCH  39  42
ENDBRANCH  36  40
ENDBRANCH   9  36
TORSDOF 13
ENDMDL
MODEL 15
REMARK minimizedAffinity -7.28509331
REMARK minimizedRMSD -1
REMARK  Name = 44137025
REMARK  15 active torsions:
REMARK  status: ('A' for Active; 'I' for Inactive)
REMARK    1  A    between atoms: S_2  and  C_24
REMARK    2  A    between atoms: S_2  and  C_37
REMARK    3  A    between atoms: O_6  and  C_30
REMARK    4  A    between atoms: O_9  and  N_16
REMARK    5  A    between atoms: O_9  and  C_41
REMARK    6  A    between atoms: O_10  and  C_46
REMARK    7  A    between atoms: N_13  and  CA_20
REMARK    8  A    between atoms: N_14  and  C_32
REMARK    9  A    between atoms: CA_22  and  C_30
REMARK   10  A    between atoms: C_31  and  C_38
REMARK   11  A    between atoms: C_32  and  C_36
REMARK   12  A    between atoms: C_38  and  C_40
REMARK   13  A    between atoms: C_41  and  C_44
REMARK   14  A    between atoms: C_41  and  C_45
REMARK   15  A    between atoms: C_41  and  C_46
REMARK                            x       y       z     vdW  Elec       q    Type
REMARK                         _______ _______ _______ _____ _____    ______ ____
ROOT
ATOM      1  S   UNL     1      17.331   4.906  19.298  0.00  0.00    +0.000 S 
ATOM      2  O   UNL     1      16.993   0.574  20.955  0.00  0.00    +0.000 OA
ATOM      3  N   UNL     1      17.468   2.259  19.373  0.00  0.00    +0.000 N 
ATOM      4  C   UNL     1      16.491   3.313  19.168  0.00  0.00    +0.000 C 
ATOM      5  CA  UNL     1      15.803   2.791  20.448  0.00  0.00    +0.000 C 
ATOM      6  C   UNL     1      16.809   1.607  20.354  0.00  0.00    +0.000 C 
ATOM      7  CA  UNL     1      18.629   2.140  18.676  0.00  0.00    +0.000 C 
ATOM      8  C   UNL     1      18.444   4.554  17.892  0.00  0.00    +0.000 C 
ATOM      9  C   UNL     1      19.099   3.176  17.939  0.00  0.00    +0.000 C 
ENDROOT
BRANCH   5  11
ATOM     10  O   UNL     1      13.669   3.610  22.309  0.00  0.00    +0.000 OA
ATOM     11  N   UNL     1      15.930   3.570  21.679  0.00  0.00    +0.000 N 
ATOM     12  C   UNL     1      14.845   3.893  22.475  0.00  0.00    +0.000 C 
ATOM     13  H   UNL     1      18.255   3.604  21.733  0.00  0.00    +0.000 HD
BRANCH  12  15
ATOM     14  N   UNL     1      14.961   5.966  23.746  0.00  0.00    +0.000 NA
ATOM     15  C   UNL     1      15.225   4.696  23.692  0.00  0.00    +0.000 C 
BRANCH  15  19
ATOM     16  S   UNL     1      16.652   2.286  26.524  0.00  0.00    +0.000 S 
ATOM     17  N   UNL     1      16.843   4.685  25.583  0.00  0.00    +0.000 NA
ATOM     18  N   UNL     1      18.235   4.219  27.436  0.00  0.00    +0.000 N 
ATOM     19  C   UNL     1      15.910   4.010  24.820  0.00  0.00    +0.000 A 
ATOM     20  C   UNL     1      15.673   2.700  25.179  0.00  0.00    +0.000 A 
ATOM     21  C   UNL     1      17.300   3.874  26.510  0.00  0.00    +0.000 A 
ATOM     22  H   UNL     1      13.214   7.079  25.811  0.00  0.00    +0.000 HD
ATOM     23  H   UNL     1      13.214   7.079  25.811  0.00  0.00    +0.000 HD
ENDBRANCH  15  19
BRANCH  14  24
ATOM     24  O   UNL     1      14.323   6.415  22.582  0.00  0.00    +0.000 OA
BRANCH  24  25
ATOM     25  C   UNL     1      13.400   7.429  22.947  0.00  0.00    +0.000 C 
ATOM     26  C   UNL     1      13.214   7.376  24.460  0.00  0.00    +0.000 C 
ATOM     27  C   UNL     1      12.097   7.175  22.192  0.00  0.00    +0.000 C 
BRANCH  25  29
ATOM     28  O   UNL     1      14.785   8.864  21.550  0.00  0.00    +0.000 OA
ATOM     29  C   UNL     1      14.040   8.741  22.515  0.00  0.00    +0.000 C 
BRANCH  29  30
ATOM     30  O   UNL     1      13.709   9.790  23.311  0.00  0.00    +0.000 OA
ATOM     31  H   UNL     1      17.339   3.676  22.707  0.00  0.00    +0.000 HD
ENDBRANCH  29  30
ENDBRANCH  25  29
ENDBRANCH  24  25
ENDBRANCH  14  24
ENDBRANCH  12  15
ENDBRANCH   5  11
BRANCH   7  33
ATOM     32  OXT UNL     1      20.222   0.642  19.607  0.00  0.00    +0.000 OA
ATOM     33  C   UNL     1      19.341   0.855  18.801  0.00  0.00    +0.000 C 
BRANCH  33  34
ATOM     34  O   UNL     1      18.856  -0.010  17.892  0.00  0.00    +0.000 OA
ATOM     35  H   UNL     1      17.074   3.028  21.566  0.00  0.00    +0.000 HD
ENDBRANCH  33  34
ENDBRANCH   7  33
BRANCH   9  36
ATOM     36  S   UNL     1      20.559   3.045  16.966  0.00  0.00    +0.000 S 
BRANCH  36  40
ATOM     37  S   UNL     1      22.056   5.622  16.270  0.00  0.00    +0.000 S 
ATOM     38  N   UNL     1      21.289   5.018  18.664  0.00  0.00    +0.000 NA
ATOM     39  C   UNL     1      21.928   6.242  18.725  0.00  0.00    +0.000 A 
ATOM     40  C   UNL     1      21.298   4.597  17.419  0.00  0.00    +0.000 A 
ATOM     41  C   UNL     1      22.411   6.731  17.530  0.00  0.00    +0.000 A 
BRANCH  39  42
ATOM     42  C   UNL     1      22.037   6.910  20.037  0.00  0.00    +0.000 C 
BRANCH  42  43
ATOM     43  N   UNL     1      20.832   7.758  20.415  0.00  0.00    +0.000 N 
ATOM     44  C   UNL     1      19.853   7.246  21.158  0.00  0.00    +0.000 A 
ATOM     45  C   UNL     1      19.778   5.847  21.673  0.00  0.00    +0.000 C 
ATOM     46  C   UNL     1      18.688   6.010  22.747  0.00  0.00    +0.000 C 
ATOM     47  C   UNL     1      17.780   7.173  22.299  0.00  0.00    +0.000 C 
ATOM     48  C   UNL     1      18.738   7.996  21.502  0.00  0.00    +0.000 A 
ATOM     49  C   UNL     1      18.629   9.301  21.066  0.00  0.00    +0.000 A 
ATOM     50  C   UNL     1      20.771   9.028  19.981  0.00  0.00    +0.000 A 
ATOM     51  C   UNL     1      19.668   9.827  20.296  0.00  0.00    +0.000 A 
ENDBRANCH  42  43
ENDBRANCH  39  42
ENDBRANCH  36  40
ENDBRANCH   9  36
TORSDOF 13
ENDMDL
MODEL 16
REMARK minimizedAffinity -7.26499462
REMARK minimizedRMSD -1
REMARK  Name = 44137025
REMARK  15 active torsions:
REMARK  status: ('A' for Active; 'I' for Inactive)
REMARK    1  A    between atoms: S_2  and  C_24
REMARK    2  A    between atoms: S_2  and  C_37
REMARK    3  A    between atoms: O_6  and  C_30
REMARK    4  A    between atoms: O_9  and  N_16
REMARK    5  A    between atoms: O_9  and  C_41
REMARK    6  A    between atoms: O_10  and  C_46
REMARK    7  A    between atoms: N_13  and  CA_20
REMARK    8  A    between atoms: N_14  and  C_32
REMARK    9  A    between atoms: CA_22  and  C_30
REMARK   10  A    between atoms: C_31  and  C_38
REMARK   11  A    between atoms: C_32  and  C_36
REMARK   12  A    between atoms: C_38  and  C_40
REMARK   13  A    between atoms: C_41  and  C_44
REMARK   14  A    between atoms: C_41  and  C_45
REMARK   15  A    between atoms: C_41  and  C_46
REMARK                            x       y       z     vdW  Elec       q    Type
REMARK                         _______ _______ _______ _____ _____    ______ ____
ROOT
ATOM      1  S   UNL     1      20.555   4.978  20.132  0.00  0.00    +0.000 S 
ATOM      2  O   UNL     1      18.650   8.488  17.750  0.00  0.00    +0.000 OA
ATOM      3  N   UNL     1      20.373   7.063  18.505  0.00  0.00    +0.000 N 
ATOM      4  C   UNL     1      20.457   6.768  19.924  0.00  0.00    +0.000 C 
ATOM      5  CA  UNL     1      19.052   7.400  20.039  0.00  0.00    +0.000 C 
ATOM      6  C   UNL     1      19.261   7.827  18.557  0.00  0.00    +0.000 C 
ATOM      7  CA  UNL     1      21.254   6.615  17.573  0.00  0.00    +0.000 C 
ATOM      8  C   UNL     1      22.114   4.846  19.188  0.00  0.00    +0.000 C 
ATOM      9  C   UNL     1      22.112   5.607  17.865  0.00  0.00    +0.000 C 
ENDROOT
BRANCH   5  11
ATOM     10  O   UNL     1      17.511   6.951  22.511  0.00  0.00    +0.000 OA
ATOM     11  N   UNL     1      17.902   6.518  20.237  0.00  0.00    +0.000 N 
ATOM     12  C   UNL     1      17.258   6.392  21.456  0.00  0.00    +0.000 C 
ATOM     13  H   UNL     1      17.618   5.945  18.001  0.00  0.00    +0.000 HD
BRANCH  12  15
ATOM     14  N   UNL     1      14.892   5.851  21.639  0.00  0.00    +0.000 NA
ATOM     15  C   UNL     1      16.099   5.431  21.413  0.00  0.00    +0.000 C 
BRANCH  15  19
ATOM     16  S   UNL     1      17.001   1.552  21.315  0.00  0.00    +0.000 S 
ATOM     17  N   UNL     1      16.165   3.503  19.841  0.00  0.00    +0.000 NA
ATOM     18  N   UNL     1      16.385   1.427  18.731  0.00  0.00    +0.000 N 
ATOM     19  C   UNL     1      16.365   3.998  21.114  0.00  0.00    +0.000 A 
ATOM     20  C   UNL     1      16.816   3.090  22.049  0.00  0.00    +0.000 A 
ATOM     21  C   UNL     1      16.468   2.224  19.830  0.00  0.00    +0.000 A 
ATOM     22  H   UNL     1      18.946   6.818  19.367  0.00  0.00    +0.000 HD
ATOM     23  H   UNL     1      18.946   6.818  19.367  0.00  0.00    +0.000 HD
ENDBRANCH  15  19
BRANCH  14  24
ATOM     24  O   UNL     1      14.861   7.226  21.907  0.00  0.00    +0.000 OA
BRANCH  24  25
ATOM     25  C   UNL     1      13.855   7.465  22.879  0.00  0.00    +0.000 C 
ATOM     26  C   UNL     1      14.391   7.015  24.234  0.00  0.00    +0.000 C 
ATOM     27  C   UNL     1      12.605   6.694  22.463  0.00  0.00    +0.000 C 
BRANCH  25  29
ATOM     28  O   UNL     1      12.555   9.491  22.512  0.00  0.00    +0.000 OA
ATOM     29  C   UNL     1      13.609   8.967  22.854  0.00  0.00    +0.000 C 
BRANCH  29  30
ATOM     30  O   UNL     1      14.682   9.697  23.251  0.00  0.00    +0.000 OA
ATOM     31  H   UNL     1      11.844   5.526  18.204  0.00  0.00    +0.000 HD
ENDBRANCH  29  30
ENDBRANCH  25  29
ENDBRANCH  24  25
ENDBRANCH  14  24
ENDBRANCH  12  15
ENDBRANCH   5  11
BRANCH   7  33
ATOM     32  OXT UNL     1      21.856   8.217  15.923  0.00  0.00    +0.000 OA
ATOM     33  C   UNL     1      21.191   7.256  16.246  0.00  0.00    +0.000 C 
BRANCH  33  34
ATOM     34  O   UNL     1      20.293   6.606  15.483  0.00  0.00    +0.000 OA
ATOM     35  H   UNL     1      24.382   5.501  18.306  0.00  0.00    +0.000 HD
ENDBRANCH  33  34
ENDBRANCH   7  33
BRANCH   9  36
ATOM     36  S   UNL     1      23.317   5.042  16.714  0.00  0.00    +0.000 S 
BRANCH  36  40
ATOM     37  S   UNL     1      23.394   1.982  16.681  0.00  0.00    +0.000 S 
ATOM     38  N   UNL     1      21.394   3.369  15.810  0.00  0.00    +0.000 NA
ATOM     39  C   UNL     1      21.082   2.035  15.640  0.00  0.00    +0.000 A 
ATOM     40  C   UNL     1      22.588   3.461  16.351  0.00  0.00    +0.000 A 
ATOM     41  C   UNL     1      22.042   1.134  16.052  0.00  0.00    +0.000 A 
BRANCH  39  42
ATOM     42  C   UNL     1      19.776   1.690  15.044  0.00  0.00    +0.000 C 
BRANCH  42  43
ATOM     43  N   UNL     1      19.804   1.493  13.535  0.00  0.00    +0.000 N 
ATOM     44  C   UNL     1      19.423   0.335  12.999  0.00  0.00    +0.000 A 
ATOM     45  C   UNL     1      18.971  -0.875  13.747  0.00  0.00    +0.000 C 
ATOM     46  C   UNL     1      18.309  -1.668  12.606  0.00  0.00    +0.000 C 
ATOM     47  C   UNL     1      19.018  -1.261  11.299  0.00  0.00    +0.000 C 
ATOM     48  C   UNL     1      19.454   0.128  11.628  0.00  0.00    +0.000 A 
ATOM     49  C   UNL     1      19.892   1.137  10.793  0.00  0.00    +0.000 A 
ATOM     50  C   UNL     1      20.224   2.504  12.757  0.00  0.00    +0.000 A 
ATOM     51  C   UNL     1      20.278   2.348  11.369  0.00  0.00    +0.000 A 
ENDBRANCH  42  43
ENDBRANCH  39  42
ENDBRANCH  36  40
ENDBRANCH   9  36
TORSDOF 13
ENDMDL
MODEL 17
REMARK minimizedAffinity -7.20285559
REMARK minimizedRMSD -1
REMARK  Name = 44137025
REMARK  15 active torsions:
REMARK  status: ('A' for Active; 'I' for Inactive)
REMARK    1  A    between atoms: S_2  and  C_24
REMARK    2  A    between atoms: S_2  and  C_37
REMARK    3  A    between atoms: O_6  and  C_30
REMARK    4  A    between atoms: O_9  and  N_16
REMARK    5  A    between atoms: O_9  and  C_41
REMARK    6  A    between atoms: O_10  and  C_46
REMARK    7  A    between atoms: N_13  and  CA_20
REMARK    8  A    between atoms: N_14  and  C_32
REMARK    9  A    between atoms: CA_22  and  C_30
REMARK   10  A    between atoms: C_31  and  C_38
REMARK   11  A    between atoms: C_32  and  C_36
REMARK   12  A    between atoms: C_38  and  C_40
REMARK   13  A    between atoms: C_41  and  C_44
REMARK   14  A    between atoms: C_41  and  C_45
REMARK   15  A    between atoms: C_41  and  C_46
REMARK                            x       y       z     vdW  Elec       q    Type
REMARK                         _______ _______ _______ _____ _____    ______ ____
ROOT
ATOM      1  S   UNL     1      19.112   4.415  19.839  0.00  0.00    +0.000 S 
ATOM      2  O   UNL     1      18.605   8.703  21.569  0.00  0.00    +0.000 OA
ATOM      3  N   UNL     1      19.532   7.006  20.216  0.00  0.00    +0.000 N 
ATOM      4  C   UNL     1      19.856   5.730  20.827  0.00  0.00    +0.000 C 
ATOM      5  CA  UNL     1      19.044   6.220  22.047  0.00  0.00    +0.000 C 
ATOM      6  C   UNL     1      19.009   7.592  21.313  0.00  0.00    +0.000 C 
ATOM      7  CA  UNL     1      19.773   7.319  18.915  0.00  0.00    +0.000 C 
ATOM      8  C   UNL     1      20.063   4.856  18.342  0.00  0.00    +0.000 C 
ATOM      9  C   UNL     1      20.064   6.347  18.016  0.00  0.00    +0.000 C 
ENDROOT
BRANCH   5  11
ATOM     10  O   UNL     1      17.899   5.271  24.591  0.00  0.00    +0.000 OA
ATOM     11  N   UNL     1      17.719   5.647  22.281  0.00  0.00    +0.000 N 
ATOM     12  C   UNL     1      17.293   5.235  23.532  0.00  0.00    +0.000 C 
ATOM     13  H   UNL     1      16.874   6.053  20.152  0.00  0.00    +0.000 HD
BRANCH  12  15
ATOM     14  N   UNL     1      14.872   5.490  23.535  0.00  0.00    +0.000 NA
ATOM     15  C   UNL     1      15.891   4.685  23.525  0.00  0.00    +0.000 C 
BRANCH  15  19
ATOM     16  S   UNL     1      15.916   0.735  23.007  0.00  0.00    +0.000 S 
ATOM     17  N   UNL     1      14.726   2.628  24.303  0.00  0.00    +0.000 NA
ATOM     18  N   UNL     1      13.920   0.449  24.741  0.00  0.00    +0.000 N 
ATOM     19  C   UNL     1      15.698   3.210  23.513  0.00  0.00    +0.000 A 
ATOM     20  C   UNL     1      16.445   2.345  22.742  0.00  0.00    +0.000 A 
ATOM     21  C   UNL     1      14.750   1.327  24.117  0.00  0.00    +0.000 A 
ATOM     22  H   UNL     1      12.627   5.546  21.847  0.00  0.00    +0.000 HD
ATOM     23  H   UNL     1      12.627   5.546  21.847  0.00  0.00    +0.000 HD
ENDBRANCH  15  19
BRANCH  14  24
ATOM     24  O   UNL     1      15.271   6.833  23.554  0.00  0.00    +0.000 OA
BRANCH  24  25
ATOM     25  C   UNL     1      14.387   7.568  22.722  0.00  0.00    +0.000 C 
ATOM     26  C   UNL     1      13.374   6.592  22.131  0.00  0.00    +0.000 C 
ATOM     27  C   UNL     1      15.219   8.263  21.647  0.00  0.00    +0.000 C 
BRANCH  25  29
ATOM     28  O   UNL     1      13.067   8.289  24.636  0.00  0.00    +0.000 OA
ATOM     29  C   UNL     1      13.710   8.581  23.635  0.00  0.00    +0.000 C 
BRANCH  29  30
ATOM     30  O   UNL     1      13.883   9.867  23.237  0.00  0.00    +0.000 OA
ATOM     31  H   UNL     1      10.759   3.586  21.928  0.00  0.00    +0.000 HD
ENDBRANCH  29  30
ENDBRANCH  25  29
ENDBRANCH  24  25
ENDBRANCH  14  24
ENDBRANCH  12  15
ENDBRANCH   5  11
BRANCH   7  33
ATOM     32  OXT UNL     1      20.568   9.544  18.656  0.00  0.00    +0.000 OA
ATOM     33  C   UNL     1      19.663   8.744  18.550  0.00  0.00    +0.000 C 
BRANCH  33  34
ATOM     34  O   UNL     1      18.421   8.988  18.094  0.00  0.00    +0.000 OA
ATOM     35  H   UNL     1      22.230   5.739  17.174  0.00  0.00    +0.000 HD
ENDBRANCH  33  34
ENDBRANCH   7  33
BRANCH   9  36
ATOM     36  S   UNL     1      20.452   6.711  16.339  0.00  0.00    +0.000 S 
BRANCH  36  40
ATOM     37  S   UNL     1      23.285   5.621  16.727  0.00  0.00    +0.000 S 
ATOM     38  N   UNL     1      22.739   8.140  16.540  0.00  0.00    +0.000 NA
ATOM     39  C   UNL     1      24.104   8.020  16.708  0.00  0.00    +0.000 A 
ATOM     40  C   UNL     1      22.204   6.940  16.535  0.00  0.00    +0.000 A 
ATOM     41  C   UNL     1      24.587   6.734  16.828  0.00  0.00    +0.000 A 
BRANCH  39  42
ATOM     42  C   UNL     1      24.917   9.252  16.744  0.00  0.00    +0.000 C 
BRANCH  42  43
ATOM     43  N   UNL     1      25.975   9.278  17.838  0.00  0.00    +0.000 N 
ATOM     44  C   UNL     1      25.636   9.543  19.098  0.00  0.00    +0.000 A 
ATOM     45  C   UNL     1      24.265   9.864  19.592  0.00  0.00    +0.000 C 
ATOM     46  C   UNL     1      24.463   9.655  21.104  0.00  0.00    +0.000 C 
ATOM     47  C   UNL     1      25.947   9.944  21.410  0.00  0.00    +0.000 C 
ATOM     48  C   UNL     1      26.585   9.586  20.108  0.00  0.00    +0.000 A 
ATOM     49  C   UNL     1      27.913   9.355  19.811  0.00  0.00    +0.000 A 
ATOM     50  C   UNL     1      27.254   9.035  17.508  0.00  0.00    +0.000 A 
ATOM     51  C   UNL     1      28.251   9.069  18.487  0.00  0.00    +0.000 A 
ENDBRANCH  42  43
ENDBRANCH  39  42
ENDBRANCH  36  40
ENDBRANCH   9  36
TORSDOF 13
ENDMDL
MODEL 18
REMARK minimizedAffinity -7.14493275
REMARK minimizedRMSD -1
REMARK  Name = 44137025
REMARK  15 active torsions:
REMARK  status: ('A' for Active; 'I' for Inactive)
REMARK    1  A    between atoms: S_2  and  C_24
REMARK    2  A    between atoms: S_2  and  C_37
REMARK    3  A    between atoms: O_6  and  C_30
REMARK    4  A    between atoms: O_9  and  N_16
REMARK    5  A    between atoms: O_9  and  C_41
REMARK    6  A    between atoms: O_10  and  C_46
REMARK    7  A    between atoms: N_13  and  CA_20
REMARK    8  A    between atoms: N_14  and  C_32
REMARK    9  A    between atoms: CA_22  and  C_30
REMARK   10  A    between atoms: C_31  and  C_38
REMARK   11  A    between atoms: C_32  and  C_36
REMARK   12  A    between atoms: C_38  and  C_40
REMARK   13  A    between atoms: C_41  and  C_44
REMARK   14  A    between atoms: C_41  and  C_45
REMARK   15  A    between atoms: C_41  and  C_46
REMARK                            x       y       z     vdW  Elec       q    Type
REMARK                         _______ _______ _______ _____ _____    ______ ____
ROOT
ATOM      1  S   UNL     1      17.527   2.854  19.514  0.00  0.00    +0.000 S 
ATOM      2  O   UNL     1      20.058   4.668  22.968  0.00  0.00    +0.000 OA
ATOM      3  N   UNL     1      19.498   3.133  21.265  0.00  0.00    +0.000 N 
ATOM      4  C   UNL     1      18.135   2.637  21.199  0.00  0.00    +0.000 C 
ATOM      5  CA  UNL     1      17.784   3.753  22.208  0.00  0.00    +0.000 C 
ATOM      6  C   UNL     1      19.321   3.974  22.306  0.00  0.00    +0.000 C 
ATOM      7  CA  UNL     1      20.502   2.735  20.440  0.00  0.00    +0.000 C 
ATOM      8  C   UNL     1      18.813   1.772  18.797  0.00  0.00    +0.000 C 
ATOM      9  C   UNL     1      20.226   2.061  19.296  0.00  0.00    +0.000 C 
ENDROOT
BRANCH   5  11
ATOM     10  O   UNL     1      16.905   6.104  23.753  0.00  0.00    +0.000 OA
ATOM     11  N   UNL     1      17.054   4.926  21.728  0.00  0.00    +0.000 N 
ATOM     12  C   UNL     1      16.695   5.974  22.557  0.00  0.00    +0.000 C 
ATOM     13  H   UNL     1      17.155   4.395  19.466  0.00  0.00    +0.000 HD
BRANCH  12  15
ATOM     14  N   UNL     1      14.659   7.045  21.760  0.00  0.00    +0.000 NA
ATOM     15  C   UNL     1      15.956   7.070  21.836  0.00  0.00    +0.000 C 
BRANCH  15  19
ATOM     16  S   UNL     1      18.582   9.795  20.592  0.00  0.00    +0.000 S 
ATOM     17  N   UNL     1      16.153   8.979  20.252  0.00  0.00    +0.000 NA
ATOM     18  N   UNL     1      16.790  10.824  18.918  0.00  0.00    +0.000 N 
ATOM     19  C   UNL     1      16.735   8.171  21.209  0.00  0.00    +0.000 A 
ATOM     20  C   UNL     1      18.046   8.460  21.525  0.00  0.00    +0.000 A 
ATOM     21  C   UNL     1      17.035   9.870  19.855  0.00  0.00    +0.000 A 
ATOM     22  H   UNL     1      13.570   9.280  23.743  0.00  0.00    +0.000 HD
ATOM     23  H   UNL     1      13.570   9.280  23.743  0.00  0.00    +0.000 HD
ENDBRANCH  15  19
BRANCH  14  24
ATOM     24  O   UNL     1      14.123   5.923  22.406  0.00  0.00    +0.000 OA
BRANCH  24  25
ATOM     25  C   UNL     1      12.943   6.326  23.085  0.00  0.00    +0.000 C 
ATOM     26  C   UNL     1      12.138   5.074  23.417  0.00  0.00    +0.000 C 
ATOM     27  C   UNL     1      12.178   7.284  22.174  0.00  0.00    +0.000 C 
BRANCH  25  29
ATOM     28  O   UNL     1      14.052   6.487  25.246  0.00  0.00    +0.000 OA
ATOM     29  C   UNL     1      13.417   7.029  24.350  0.00  0.00    +0.000 C 
BRANCH  29  30
ATOM     30  O   UNL     1      13.066   8.339  24.403  0.00  0.00    +0.000 OA
ATOM     31  H   UNL     1      10.861   1.558  24.693  0.00  0.00    +0.000 HD
ENDBRANCH  29  30
ENDBRANCH  25  29
ENDBRANCH  24  25
ENDBRANCH  14  24
ENDBRANCH  12  15
ENDBRANCH   5  11
BRANCH   7  33
ATOM     32  OXT UNL     1      22.600   2.401  21.505  0.00  0.00    +0.000 OA
ATOM     33  C   UNL     1      21.871   3.107  20.843  0.00  0.00    +0.000 C 
BRANCH  33  34
ATOM     34  O   UNL     1      22.156   4.331  20.361  0.00  0.00    +0.000 OA
ATOM     35  H   UNL     1      20.442  -0.131  18.612  0.00  0.00    +0.000 HD
ENDBRANCH  33  34
ENDBRANCH   7  33
BRANCH   9  36
ATOM     36  S   UNL     1      21.496   1.466  18.234  0.00  0.00    +0.000 S 
BRANCH  36  40
ATOM     37  S   UNL     1      20.413   2.709  15.655  0.00  0.00    +0.000 S 
ATOM     38  N   UNL     1      22.194   3.842  17.148  0.00  0.00    +0.000 NA
ATOM     39  C   UNL     1      21.948   4.682  16.079  0.00  0.00    +0.000 A 
ATOM     40  C   UNL     1      21.441   2.772  17.028  0.00  0.00    +0.000 A 
ATOM     41  C   UNL     1      21.015   4.239  15.165  0.00  0.00    +0.000 A 
BRANCH  39  42
ATOM     42  C   UNL     1      22.689   5.957  16.005  0.00  0.00    +0.000 C 
BRANCH  42  43
ATOM     43  N   UNL     1      22.020   7.117  16.728  0.00  0.00    +0.000 N 
ATOM     44  C   UNL     1      22.509   7.566  17.882  0.00  0.00    +0.000 A 
ATOM     45  C   UNL     1      23.690   7.017  18.610  0.00  0.00    +0.000 C 
ATOM     46  C   UNL     1      23.972   8.174  19.585  0.00  0.00    +0.000 C 
ATOM     47  C   UNL     1      22.629   8.886  19.843  0.00  0.00    +0.000 C 
ATOM     48  C   UNL     1      21.907   8.612  18.565  0.00  0.00    +0.000 A 
ATOM     49  C   UNL     1      20.772   9.205  18.048  0.00  0.00    +0.000 A 
ATOM     50  C   UNL     1      20.925   7.675  16.184  0.00  0.00    +0.000 A 
ATOM     51  C   UNL     1      20.277   8.730  16.832  0.00  0.00    +0.000 A 
ENDBRANCH  42  43
ENDBRANCH  39  42
ENDBRANCH  36  40
ENDBRANCH   9  36
TORSDOF 13
ENDMDL
MODEL 19
REMARK minimizedAffinity -7.13964653
REMARK minimizedRMSD -1
REMARK  Name = 44137025
REMARK  15 active torsions:
REMARK  status: ('A' for Active; 'I' for Inactive)
REMARK    1  A    between atoms: S_2  and  C_24
REMARK    2  A    between atoms: S_2  and  C_37
REMARK    3  A    between atoms: O_6  and  C_30
REMARK    4  A    between atoms: O_9  and  N_16
REMARK    5  A    between atoms: O_9  and  C_41
REMARK    6  A    between atoms: O_10  and  C_46
REMARK    7  A    between atoms: N_13  and  CA_20
REMARK    8  A    between atoms: N_14  and  C_32
REMARK    9  A    between atoms: CA_22  and  C_30
REMARK   10  A    between atoms: C_31  and  C_38
REMARK   11  A    between atoms: C_32  and  C_36
REMARK   12  A    between atoms: C_38  and  C_40
REMARK   13  A    between atoms: C_41  and  C_44
REMARK   14  A    between atoms: C_41  and  C_45
REMARK   15  A    between atoms: C_41  and  C_46
REMARK                            x       y       z     vdW  Elec       q    Type
REMARK                         _______ _______ _______ _____ _____    ______ ____
ROOT
ATOM      1  S   UNL     1      15.136   2.615  20.330  0.00  0.00    +0.000 S 
ATOM      2  O   UNL     1      14.870   5.520  23.951  0.00  0.00    +0.000 OA
ATOM      3  N   UNL     1      14.324   3.638  22.638  0.00  0.00    +0.000 N 
ATOM      4  C   UNL     1      14.123   3.821  21.212  0.00  0.00    +0.000 C 
ATOM      5  CA  UNL     1      14.737   5.226  21.405  0.00  0.00    +0.000 C 
ATOM      6  C   UNL     1      14.652   4.914  22.928  0.00  0.00    +0.000 C 
ATOM      7  CA  UNL     1      14.169   2.455  23.290  0.00  0.00    +0.000 C 
ATOM      8  C   UNL     1      14.282   1.187  21.087  0.00  0.00    +0.000 C 
ATOM      9  C   UNL     1      14.105   1.291  22.599  0.00  0.00    +0.000 C 
ENDROOT
BRANCH   5  11
ATOM     10  O   UNL     1      16.254   7.752  21.440  0.00  0.00    +0.000 OA
ATOM     11  N   UNL     1      16.100   5.466  20.933  0.00  0.00    +0.000 N 
ATOM     12  C   UNL     1      16.708   6.707  21.003  0.00  0.00    +0.000 C 
ATOM     13  H   UNL     1      16.628   3.241  20.506  0.00  0.00    +0.000 HD
BRANCH  12  15
ATOM     14  N   UNL     1      18.494   7.630  19.630  0.00  0.00    +0.000 NA
ATOM     15  C   UNL     1      18.113   6.706  20.460  0.00  0.00    +0.000 C 
BRANCH  15  19
ATOM     16  S   UNL     1      20.641   4.185  22.227  0.00  0.00    +0.000 S 
ATOM     17  N   UNL     1      19.380   4.612  20.011  0.00  0.00    +0.000 NA
ATOM     18  N   UNL     1      20.743   2.680  20.037  0.00  0.00    +0.000 N 
ATOM     19  C   UNL     1      19.047   5.629  20.884  0.00  0.00    +0.000 A 
ATOM     20  C   UNL     1      19.631   5.568  22.132  0.00  0.00    +0.000 A 
ATOM     21  C   UNL     1      20.214   3.793  20.612  0.00  0.00    +0.000 A 
ATOM     22  H   UNL     1      20.425   8.297  17.942  0.00  0.00    +0.000 HD
ATOM     23  H   UNL     1      20.425   8.297  17.942  0.00  0.00    +0.000 HD
ENDBRANCH  15  19
BRANCH  14  24
ATOM     24  O   UNL     1      17.464   8.539  19.356  0.00  0.00    +0.000 OA
BRANCH  24  25
ATOM     25  C   UNL     1      18.030   9.839  19.280  0.00  0.00    +0.000 C 
ATOM     26  C   UNL     1      18.949   9.882  18.063  0.00  0.00    +0.000 C 
ATOM     27  C   UNL     1      18.778  10.105  20.583  0.00  0.00    +0.000 C 
BRANCH  25  29
ATOM     28  O   UNL     1      16.955  11.973  18.811  0.00  0.00    +0.000 OA
ATOM     29  C   UNL     1      16.853  10.790  19.116  0.00  0.00    +0.000 C 
BRANCH  29  30
ATOM     30  O   UNL     1      15.650  10.204  19.344  0.00  0.00    +0.000 OA
ATOM     31  H   UNL     1      21.772  12.545  22.166  0.00  0.00    +0.000 HD
ENDBRANCH  29  30
ENDBRANCH  25  29
ENDBRANCH  24  25
ENDBRANCH  14  24
ENDBRANCH  12  15
ENDBRANCH   5  11
BRANCH   7  33
ATOM     32  OXT UNL     1      15.076   2.371  25.486  0.00  0.00    +0.000 OA
ATOM     33  C   UNL     1      14.114   2.520  24.763  0.00  0.00    +0.000 C 
BRANCH  33  34
ATOM     34  O   UNL     1      12.848   2.765  25.147  0.00  0.00    +0.000 OA
ATOM     35  H   UNL     1      16.307   4.756  21.988  0.00  0.00    +0.000 HD
ENDBRANCH  33  34
ENDBRANCH   7  33
BRANCH   9  36
ATOM     36  S   UNL     1      13.835  -0.255  23.395  0.00  0.00    +0.000 S 
BRANCH  36  40
ATOM     37  S   UNL     1      11.568  -1.176  21.557  0.00  0.00    +0.000 S 
ATOM     38  N   UNL     1      11.178   0.001  23.826  0.00  0.00    +0.000 NA
ATOM     39  C   UNL     1       9.940  -0.267  23.276  0.00  0.00    +0.000 A 
ATOM     40  C   UNL     1      12.109  -0.434  23.007  0.00  0.00    +0.000 A 
ATOM     41  C   UNL     1       9.948  -0.899  22.050  0.00  0.00    +0.000 A 
BRANCH  39  42
ATOM     42  C   UNL     1       8.736   0.137  24.029  0.00  0.00    +0.000 C 
BRANCH  42  43
ATOM     43  N   UNL     1       7.795   1.058  23.267  0.00  0.00    +0.000 N 
ATOM     44  C   UNL     1       8.055   2.360  23.171  0.00  0.00    +0.000 A 
ATOM     45  C   UNL     1       9.216   3.073  23.781  0.00  0.00    +0.000 C 
ATOM     46  C   UNL     1       9.174   4.391  22.989  0.00  0.00    +0.000 C 
ATOM     47  C   UNL     1       7.707   4.623  22.574  0.00  0.00    +0.000 C 
ATOM     48  C   UNL     1       7.204   3.220  22.494  0.00  0.00    +0.000 A 
ATOM     49  C   UNL     1       6.056   2.726  21.907  0.00  0.00    +0.000 A 
ATOM     50  C   UNL     1       6.695   0.535  22.699  0.00  0.00    +0.000 A 
ATOM     51  C   UNL     1       5.802   1.357  22.007  0.00  0.00    +0.000 A 
ENDBRANCH  42  43
ENDBRANCH  39  42
ENDBRANCH  36  40
ENDBRANCH   9  36
TORSDOF 13
ENDMDL
MODEL 20
REMARK minimizedAffinity -7.02696609
REMARK minimizedRMSD -1
REMARK  Name = 44137025
REMARK  15 active torsions:
REMARK  status: ('A' for Active; 'I' for Inactive)
REMARK    1  A    between atoms: S_2  and  C_24
REMARK    2  A    between atoms: S_2  and  C_37
REMARK    3  A    between atoms: O_6  and  C_30
REMARK    4  A    between atoms: O_9  and  N_16
REMARK    5  A    between atoms: O_9  and  C_41
REMARK    6  A    between atoms: O_10  and  C_46
REMARK    7  A    between atoms: N_13  and  CA_20
REMARK    8  A    between atoms: N_14  and  C_32
REMARK    9  A    between atoms: CA_22  and  C_30
REMARK   10  A    between atoms: C_31  and  C_38
REMARK   11  A    between atoms: C_32  and  C_36
REMARK   12  A    between atoms: C_38  and  C_40
REMARK   13  A    between atoms: C_41  and  C_44
REMARK   14  A    between atoms: C_41  and  C_45
REMARK   15  A    between atoms: C_41  and  C_46
REMARK                            x       y       z     vdW  Elec       q    Type
REMARK                         _______ _______ _______ _____ _____    ______ ____
ROOT
ATOM      1  S   UNL     1      18.366   5.774  21.521  0.00  0.00    +0.000 S 
ATOM      2  O   UNL     1      14.313   7.507  23.003  0.00  0.00    +0.000 OA
ATOM      3  N   UNL     1      16.615   7.515  22.486  0.00  0.00    +0.000 N 
ATOM      4  C   UNL     1      17.431   6.401  22.932  0.00  0.00    +0.000 C 
ATOM      5  CA  UNL     1      16.101   5.682  23.252  0.00  0.00    +0.000 C 
ATOM      6  C   UNL     1      15.433   7.054  22.946  0.00  0.00    +0.000 C 
ATOM      7  CA  UNL     1      17.094   8.604  21.828  0.00  0.00    +0.000 C 
ATOM      8  C   UNL     1      19.239   7.357  21.261  0.00  0.00    +0.000 C 
ATOM      9  C   UNL     1      18.331   8.584  21.275  0.00  0.00    +0.000 C 
ENDROOT
BRANCH   5  11
ATOM     10  O   UNL     1      16.183   2.778  23.744  0.00  0.00    +0.000 OA
ATOM     11  N   UNL     1      15.657   4.605  22.368  0.00  0.00    +0.000 N 
ATOM     12  C   UNL     1      15.748   3.268  22.714  0.00  0.00    +0.000 C 
ATOM     13  H   UNL     1      14.675   5.969  20.759  0.00  0.00    +0.000 HD
BRANCH  12  15
ATOM     14  N   UNL     1      15.978   2.006  20.646  0.00  0.00    +0.000 NA
ATOM     15  C   UNL     1      15.223   2.346  21.646  0.00  0.00    +0.000 C 
BRANCH  15  19
ATOM     16  S   UNL     1      11.789   0.335  21.833  0.00  0.00    +0.000 S 
ATOM     17  N   UNL     1      12.782   2.718  21.959  0.00  0.00    +0.000 NA
ATOM     18  N   UNL     1      10.435   2.593  22.209  0.00  0.00    +0.000 N 
ATOM     19  C   UNL     1      13.828   1.840  21.755  0.00  0.00    +0.000 A 
ATOM     20  C   UNL     1      13.486   0.507  21.661  0.00  0.00    +0.000 A 
ATOM     21  C   UNL     1      11.660   2.036  22.017  0.00  0.00    +0.000 A 
ATOM     22  H   UNL     1      14.771   4.110  18.345  0.00  0.00    +0.000 HD
ATOM     23  H   UNL     1      14.771   4.110  18.345  0.00  0.00    +0.000 HD
ENDBRANCH  15  19
BRANCH  14  24
ATOM     24  O   UNL     1      17.247   2.596  20.729  0.00  0.00    +0.000 OA
BRANCH  24  25
ATOM     25  C   UNL     1      18.087   1.976  19.767  0.00  0.00    +0.000 C 
ATOM     26  C   UNL     1      17.990   0.465  19.961  0.00  0.00    +0.000 C 
ATOM     27  C   UNL     1      19.506   2.498  19.973  0.00  0.00    +0.000 C 
BRANCH  25  29
ATOM     28  O   UNL     1      17.085   1.618  17.577  0.00  0.00    +0.000 OA
ATOM     29  C   UNL     1      17.537   2.394  18.411  0.00  0.00    +0.000 C 
BRANCH  29  30
ATOM     30  O   UNL     1      17.591   3.733  18.197  0.00  0.00    +0.000 OA
ATOM     31  H   UNL     1      21.255  -2.356  18.843  0.00  0.00    +0.000 HD
ENDBRANCH  29  30
ENDBRANCH  25  29
ENDBRANCH  24  25
ENDBRANCH  14  24
ENDBRANCH  12  15
ENDBRANCH   5  11
BRANCH   7  33
ATOM     32  OXT UNL     1      16.068  10.609  22.585  0.00  0.00    +0.000 OA
ATOM     33  C   UNL     1      16.187   9.762  21.726  0.00  0.00    +0.000 C 
BRANCH  33  34
ATOM     34  O   UNL     1      15.537   9.712  20.549  0.00  0.00    +0.000 OA
ATOM     35  H   UNL     1      20.334   9.548  22.243  0.00  0.00    +0.000 HD
ENDBRANCH  33  34
ENDBRANCH   7  33
BRANCH   9  36
ATOM     36  S   UNL     1      19.020   9.992  20.475  0.00  0.00    +0.000 S 
BRANCH  36  40
ATOM     37  S   UNL     1      19.528   8.148  18.085  0.00  0.00    +0.000 S 
ATOM     38  N   UNL     1      21.416   9.227  19.482  0.00  0.00    +0.000 NA
ATOM     39  C   UNL     1      22.010   8.465  18.495  0.00  0.00    +0.000 A 
ATOM     40  C   UNL     1      20.111   9.135  19.363  0.00  0.00    +0.000 A 
ATOM     41  C   UNL     1      21.149   7.806  17.642  0.00  0.00    +0.000 A 
BRANCH  39  42
ATOM     42  C   UNL     1      23.484   8.420  18.436  0.00  0.00    +0.000 C 
BRANCH  42  43
ATOM     43  N   UNL     1      24.153   7.951  19.720  0.00  0.00    +0.000 N 
ATOM     44  C   UNL     1      24.702   8.831  20.555  0.00  0.00    +0.000 A 
ATOM     45  C   UNL     1      24.769  10.308  20.358  0.00  0.00    +0.000 C 
ATOM     46  C   UNL     1      25.120  10.759  21.787  0.00  0.00    +0.000 C 
ATOM     47  C   UNL     1      25.892   9.601  22.450  0.00  0.00    +0.000 C 
ATOM     48  C   UNL     1      25.329   8.425  21.723  0.00  0.00    +0.000 A 
ATOM     49  C   UNL     1      25.395   7.081  22.034  0.00  0.00    +0.000 A 
ATOM     50  C   UNL     1      24.184   6.636  19.991  0.00  0.00    +0.000 A 
ATOM     51  C   UNL     1      24.806   6.172  21.154  0.00  0.00    +0.000 A 
ENDBRANCH  42  43
ENDBRANCH  39  42
ENDBRANCH  36  40
ENDBRANCH   9  36
TORSDOF 13
ENDMDL
