MODEL 1
REMARK minimizedAffinity -8.08841419
REMARK minimizedRMSD -1
REMARK  Name = 56607520
REMARK  9 active torsions:
REMARK  status: ('A' for Active; 'I' for Inactive)
REMARK    1  A    between atoms: O_4  and  N_12
REMARK    2  A    between atoms: O_4  and  C_23
REMARK    3  A    between atoms: O_6  and  N_13
REMARK    4  A    between atoms: O_6  and  C_25
REMARK    5  A    between atoms: N_10  and  C_22
REMARK    6  A    between atoms: C_19  and  C_23
REMARK    7  A    between atoms: C_20  and  C_22
REMARK    8  A    between atoms: C_33  and  C_34
REMARK    9  A    between atoms: C_34  and  C_35
REMARK                            x       y       z     vdW  Elec       q    Type
REMARK                         _______ _______ _______ _____ _____    ______ ____
ROOT
ATOM      1  O   UNL     1      20.378   9.945  20.497  0.00  0.00    +0.000 OA
ATOM      2  N   UNL     1      19.657   8.647  18.692  0.00  0.00    +0.000 N 
ATOM      3  C   UNL     1      19.686   9.080  19.986  0.00  0.00    +0.000 C 
ATOM      4  H   UNL     1      19.598   8.711  18.309  0.00  0.00    +0.000 HD
ENDROOT
BRANCH   3   6
ATOM      5  N   UNL     1      17.875   9.005  21.611  0.00  0.00    +0.000 NA
ATOM      6  C   UNL     1      18.701   8.345  20.857  0.00  0.00    +0.000 C 
BRANCH   6  10
ATOM      7  S   UNL     1      19.141   4.420  21.382  0.00  0.00    +0.000 S 
ATOM      8  N   UNL     1      17.961   6.173  19.892  0.00  0.00    +0.000 NA
ATOM      9  N   UNL     1      17.534   3.918  19.322  0.00  0.00    +0.000 N 
ATOM     10  C   UNL     1      18.697   6.858  20.839  0.00  0.00    +0.000 A 
ATOM     11  C   UNL     1      19.402   6.079  21.732  0.00  0.00    +0.000 A 
ATOM     12  C   UNL     1      18.120   4.882  20.081  0.00  0.00    +0.000 A 
ATOM     13  H   UNL     1      21.025   9.573  20.136  0.00  0.00    +0.000 HD
ATOM     14  H   UNL     1      21.025   9.573  20.136  0.00  0.00    +0.000 HD
ENDBRANCH   6  10
BRANCH   5  15
ATOM     15  O   UNL     1      17.045   8.146  22.346  0.00  0.00    +0.000 OA
BRANCH  15  19
ATOM     16  O   UNL     1      15.541  10.384  23.378  0.00  0.00    +0.000 OA
ATOM     17  N   UNL     1      13.729   8.926  23.081  0.00  0.00    +0.000 N 
ATOM     18  C   UNL     1      14.854   7.147  22.118  0.00  0.00    +0.000 C 
ATOM     19  C   UNL     1      15.715   8.398  21.971  0.00  0.00    +0.000 C 
ATOM     20  C   UNL     1      13.468   7.704  22.371  0.00  0.00    +0.000 C 
ATOM     21  C   UNL     1      15.032   9.383  22.899  0.00  0.00    +0.000 C 
ATOM     22  H   UNL     1      19.795   5.095  20.244  0.00  0.00    +0.000 HD
ENDBRANCH  15  19
ENDBRANCH   5  15
ENDBRANCH   3   6
BRANCH   2  23
ATOM     23  O   UNL     1      20.624   9.218  17.845  0.00  0.00    +0.000 OA
BRANCH  23  25
ATOM     24  O   UNL     1      20.211   8.843  15.598  0.00  0.00    +0.000 OA
ATOM     25  C   UNL     1      20.717   8.554  16.666  0.00  0.00    +0.000 C 
BRANCH  25  32
ATOM     26  S   UNL     1      23.077   4.695  16.387  0.00  0.00    +0.000 S 
ATOM     27  O   UNL     1      18.644   6.101  16.349  0.00  0.00    +0.000 OA
ATOM     28  N   UNL     1      20.931   6.165  16.923  0.00  0.00    +0.000 N 
ATOM     29  C   UNL     1      21.571   4.937  17.357  0.00  0.00    +0.000 C 
ATOM     30  C   UNL     1      20.306   4.211  16.852  0.00  0.00    +0.000 C 
ATOM     31  C   UNL     1      19.715   5.638  16.666  0.00  0.00    +0.000 C 
ATOM     32  C   UNL     1      21.561   7.367  16.868  0.00  0.00    +0.000 C 
ATOM     33  C   UNL     1      22.910   7.461  16.936  0.00  0.00    +0.000 C 
ATOM     34  C   UNL     1      23.836   6.248  16.974  0.00  0.00    +0.000 C 
BRANCH  33  35
ATOM     35  C   UNL     1      23.679   8.761  16.963  0.00  0.00    +0.000 C 
BRANCH  35  36
ATOM     36  N   UNL     1      24.309   9.010  18.299  0.00  0.00    +0.000 N 
ATOM     37  C   UNL     1      25.640   9.146  18.371  0.00  0.00    +0.000 A 
ATOM     38  C   UNL     1      23.520   9.088  19.379  0.00  0.00    +0.000 A 
ATOM     39  C   UNL     1      26.250   9.376  19.595  0.00  0.00    +0.000 A 
ATOM     40  C   UNL     1      24.076   9.318  20.631  0.00  0.00    +0.000 A 
ATOM     41  C   UNL     1      25.456   9.463  20.735  0.00  0.00    +0.000 A 
ENDBRANCH  35  36
ENDBRANCH  33  35
ENDBRANCH  25  32
ENDBRANCH  23  25
ENDBRANCH   2  23
TORSDOF 9
ENDMDL
MODEL 2
REMARK minimizedAffinity -7.93321276
REMARK minimizedRMSD -1
REMARK  Name = 56607520
REMARK  9 active torsions:
REMARK  status: ('A' for Active; 'I' for Inactive)
REMARK    1  A    between atoms: O_4  and  N_12
REMARK    2  A    between atoms: O_4  and  C_23
REMARK    3  A    between atoms: O_6  and  N_13
REMARK    4  A    between atoms: O_6  and  C_25
REMARK    5  A    between atoms: N_10  and  C_22
REMARK    6  A    between atoms: C_19  and  C_23
REMARK    7  A    between atoms: C_20  and  C_22
REMARK    8  A    between atoms: C_33  and  C_34
REMARK    9  A    between atoms: C_34  and  C_35
REMARK                            x       y       z     vdW  Elec       q    Type
REMARK                         _______ _______ _______ _____ _____    ______ ____
ROOT
ATOM      1  O   UNL     1      19.187   9.403  21.226  0.00  0.00    +0.000 OA
ATOM      2  N   UNL     1      18.841   7.661  19.706  0.00  0.00    +0.000 N 
ATOM      3  C   UNL     1      18.627   8.388  20.841  0.00  0.00    +0.000 C 
ATOM      4  H   UNL     1      18.846   7.627  19.315  0.00  0.00    +0.000 HD
ENDROOT
BRANCH   3   6
ATOM      5  N   UNL     1      16.606   8.571  22.185  0.00  0.00    +0.000 NA
ATOM      6  C   UNL     1      17.535   7.805  21.698  0.00  0.00    +0.000 C 
BRANCH   6  10
ATOM      7  S   UNL     1      17.914   4.080  23.058  0.00  0.00    +0.000 S 
ATOM      8  N   UNL     1      16.972   5.460  21.084  0.00  0.00    +0.000 NA
ATOM      9  N   UNL     1      16.657   3.122  20.918  0.00  0.00    +0.000 N 
ATOM     10  C   UNL     1      17.544   6.344  21.977  0.00  0.00    +0.000 A 
ATOM     11  C   UNL     1      18.105   5.784  23.106  0.00  0.00    +0.000 A 
ATOM     12  C   UNL     1      17.108   4.238  21.550  0.00  0.00    +0.000 A 
ATOM     13  H   UNL     1      19.935   8.956  21.112  0.00  0.00    +0.000 HD
ATOM     14  H   UNL     1      19.935   8.956  21.112  0.00  0.00    +0.000 HD
ENDBRANCH   6  10
BRANCH   5  15
ATOM     15  O   UNL     1      15.687   7.845  22.956  0.00  0.00    +0.000 OA
BRANCH  15  19
ATOM     16  O   UNL     1      13.684   9.884  23.365  0.00  0.00    +0.000 OA
ATOM     17  N   UNL     1      12.214   8.126  22.867  0.00  0.00    +0.000 N 
ATOM     18  C   UNL     1      13.771   6.482  22.389  0.00  0.00    +0.000 C 
ATOM     19  C   UNL     1      14.456   7.840  22.279  0.00  0.00    +0.000 C 
ATOM     20  C   UNL     1      12.300   6.821  22.271  0.00  0.00    +0.000 C 
ATOM     21  C   UNL     1      13.446   8.775  22.913  0.00  0.00    +0.000 C 
ATOM     22  H   UNL     1      19.251   5.121  21.875  0.00  0.00    +0.000 HD
ENDBRANCH  15  19
ENDBRANCH   5  15
ENDBRANCH   3   6
BRANCH   2  23
ATOM     23  O   UNL     1      19.918   8.089  18.910  0.00  0.00    +0.000 OA
BRANCH  23  25
ATOM     24  O   UNL     1      19.055   7.860  16.773  0.00  0.00    +0.000 OA
ATOM     25  C   UNL     1      19.849   7.583  17.654  0.00  0.00    +0.000 C 
BRANCH  25  32
ATOM     26  S   UNL     1      22.640   4.231  16.425  0.00  0.00    +0.000 S 
ATOM     27  O   UNL     1      18.365   4.765  18.178  0.00  0.00    +0.000 OA
ATOM     28  N   UNL     1      20.628   5.304  17.786  0.00  0.00    +0.000 N 
ATOM     29  C   UNL     1      21.623   4.256  17.919  0.00  0.00    +0.000 C 
ATOM     30  C   UNL     1      20.438   3.268  17.958  0.00  0.00    +0.000 C 
ATOM     31  C   UNL     1      19.544   4.538  18.035  0.00  0.00    +0.000 C 
ATOM     32  C   UNL     1      20.926   6.596  17.491  0.00  0.00    +0.000 C 
ATOM     33  C   UNL     1      22.143   6.949  17.013  0.00  0.00    +0.000 C 
ATOM     34  C   UNL     1      23.235   5.940  16.668  0.00  0.00    +0.000 C 
BRANCH  33  35
ATOM     35  C   UNL     1      22.578   8.369  16.739  0.00  0.00    +0.000 C 
BRANCH  35  36
ATOM     36  N   UNL     1      23.554   8.862  17.762  0.00  0.00    +0.000 N 
ATOM     37  C   UNL     1      24.826   9.070  17.395  0.00  0.00    +0.000 A 
ATOM     38  C   UNL     1      23.124   9.079  19.012  0.00  0.00    +0.000 A 
ATOM     39  C   UNL     1      25.752   9.526  18.322  0.00  0.00    +0.000 A 
ATOM     40  C   UNL     1      24.006   9.535  19.983  0.00  0.00    +0.000 A 
ATOM     41  C   UNL     1      25.333   9.760  19.628  0.00  0.00    +0.000 A 
ENDBRANCH  35  36
ENDBRANCH  33  35
ENDBRANCH  25  32
ENDBRANCH  23  25
ENDBRANCH   2  23
TORSDOF 9
ENDMDL
MODEL 3
REMARK minimizedAffinity -7.75733137
REMARK minimizedRMSD -1
REMARK  Name = 56607520
REMARK  9 active torsions:
REMARK  status: ('A' for Active; 'I' for Inactive)
REMARK    1  A    between atoms: O_4  and  N_12
REMARK    2  A    between atoms: O_4  and  C_23
REMARK    3  A    between atoms: O_6  and  N_13
REMARK    4  A    between atoms: O_6  and  C_25
REMARK    5  A    between atoms: N_10  and  C_22
REMARK    6  A    between atoms: C_19  and  C_23
REMARK    7  A    between atoms: C_20  and  C_22
REMARK    8  A    between atoms: C_33  and  C_34
REMARK    9  A    between atoms: C_34  and  C_35
REMARK                            x       y       z     vdW  Elec       q    Type
REMARK                         _______ _______ _______ _____ _____    ______ ____
ROOT
ATOM      1  O   UNL     1      18.895   7.205  16.749  0.00  0.00    +0.000 OA
ATOM      2  N   UNL     1      20.125   8.254  18.436  0.00  0.00    +0.000 N 
ATOM      3  C   UNL     1      19.937   7.556  17.279  0.00  0.00    +0.000 C 
ATOM      4  H   UNL     1      20.079   8.577  18.654  0.00  0.00    +0.000 HD
ENDROOT
BRANCH   3   6
ATOM      5  N   UNL     1      21.916   8.104  15.971  0.00  0.00    +0.000 NA
ATOM      6  C   UNL     1      21.237   7.199  16.609  0.00  0.00    +0.000 C 
BRANCH   6  10
ATOM      7  S   UNL     1      22.123   3.333  16.226  0.00  0.00    +0.000 S 
ATOM      8  N   UNL     1      22.591   5.412  17.691  0.00  0.00    +0.000 NA
ATOM      9  N   UNL     1      23.696   3.435  18.369  0.00  0.00    +0.000 N 
ATOM     10  C   UNL     1      21.723   5.795  16.687  0.00  0.00    +0.000 A 
ATOM     11  C   UNL     1      21.356   4.806  15.798  0.00  0.00    +0.000 A 
ATOM     12  C   UNL     1      22.870   4.135  17.548  0.00  0.00    +0.000 A 
ATOM     13  H   UNL     1      18.606   7.618  17.182  0.00  0.00    +0.000 HD
ATOM     14  H   UNL     1      18.606   7.618  17.182  0.00  0.00    +0.000 HD
ENDBRANCH   6  10
BRANCH   5  15
ATOM     15  O   UNL     1      23.090   7.576  15.414  0.00  0.00    +0.000 OA
BRANCH  15  19
ATOM     16  O   UNL     1      25.724   6.426  15.685  0.00  0.00    +0.000 OA
ATOM     17  N   UNL     1      25.864   7.906  17.498  0.00  0.00    +0.000 N 
ATOM     18  C   UNL     1      23.822   8.967  17.253  0.00  0.00    +0.000 C 
ATOM     19  C   UNL     1      24.179   8.299  15.929  0.00  0.00    +0.000 C 
ATOM     20  C   UNL     1      25.155   9.065  17.966  0.00  0.00    +0.000 C 
ATOM     21  C   UNL     1      25.337   7.399  16.312  0.00  0.00    +0.000 C 
ATOM     22  H   UNL     1      19.053   9.470  14.229  0.00  0.00    +0.000 HD
ENDBRANCH  15  19
ENDBRANCH   5  15
ENDBRANCH   3   6
BRANCH   2  23
ATOM     23  O   UNL     1      18.957   8.531  19.169  0.00  0.00    +0.000 OA
BRANCH  23  25
ATOM     24  O   UNL     1      19.993   9.807  20.800  0.00  0.00    +0.000 OA
ATOM     25  C   UNL     1      19.238   8.925  20.436  0.00  0.00    +0.000 C 
BRANCH  25  32
ATOM     26  S   UNL     1      16.279   6.213  22.540  0.00  0.00    +0.000 S 
ATOM     27  O   UNL     1      16.394  10.442  20.608  0.00  0.00    +0.000 OA
ATOM     28  N   UNL     1      17.242   8.555  21.740  0.00  0.00    +0.000 N 
ATOM     29  C   UNL     1      16.462   7.988  22.825  0.00  0.00    +0.000 C 
ATOM     30  C   UNL     1      15.305   8.885  22.334  0.00  0.00    +0.000 C 
ATOM     31  C   UNL     1      16.366   9.521  21.391  0.00  0.00    +0.000 C 
ATOM     32  C   UNL     1      18.461   8.088  21.364  0.00  0.00    +0.000 C 
ATOM     33  C   UNL     1      18.914   6.881  21.776  0.00  0.00    +0.000 C 
ATOM     34  C   UNL     1      18.077   5.905  22.599  0.00  0.00    +0.000 C 
BRANCH  33  35
ATOM     35  C   UNL     1      20.286   6.329  21.467  0.00  0.00    +0.000 C 
BRANCH  35  36
ATOM     36  N   UNL     1      20.212   5.025  20.735  0.00  0.00    +0.000 N 
ATOM     37  C   UNL     1      20.895   3.975  21.211  0.00  0.00    +0.000 A 
ATOM     38  C   UNL     1      19.465   4.949  19.625  0.00  0.00    +0.000 A 
ATOM     39  C   UNL     1      20.845   2.755  20.553  0.00  0.00    +0.000 A 
ATOM     40  C   UNL     1      19.377   3.753  18.924  0.00  0.00    +0.000 A 
ATOM     41  C   UNL     1      20.076   2.648  19.398  0.00  0.00    +0.000 A 
ENDBRANCH  35  36
ENDBRANCH  33  35
ENDBRANCH  25  32
ENDBRANCH  23  25
ENDBRANCH   2  23
TORSDOF 9
ENDMDL
MODEL 4
REMARK minimizedAffinity -7.73366022
REMARK minimizedRMSD -1
REMARK  Name = 56607520
REMARK  9 active torsions:
REMARK  status: ('A' for Active; 'I' for Inactive)
REMARK    1  A    between atoms: O_4  and  N_12
REMARK    2  A    between atoms: O_4  and  C_23
REMARK    3  A    between atoms: O_6  and  N_13
REMARK    4  A    between atoms: O_6  and  C_25
REMARK    5  A    between atoms: N_10  and  C_22
REMARK    6  A    between atoms: C_19  and  C_23
REMARK    7  A    between atoms: C_20  and  C_22
REMARK    8  A    between atoms: C_33  and  C_34
REMARK    9  A    between atoms: C_34  and  C_35
REMARK                            x       y       z     vdW  Elec       q    Type
REMARK                         _______ _______ _______ _____ _____    ______ ____
ROOT
ATOM      1  O   UNL     1      17.981   4.516  20.566  0.00  0.00    +0.000 OA
ATOM      2  N   UNL     1      18.526   5.991  18.836  0.00  0.00    +0.000 N 
ATOM      3  C   UNL     1      18.001   5.617  20.040  0.00  0.00    +0.000 C 
ATOM      4  H   UNL     1      18.830   6.033  18.592  0.00  0.00    +0.000 HD
ENDROOT
BRANCH   3   6
ATOM      5  N   UNL     1      16.519   6.554  21.729  0.00  0.00    +0.000 NA
ATOM      6  C   UNL     1      17.372   6.771  20.773  0.00  0.00    +0.000 C 
BRANCH   6  10
ATOM      7  S   UNL     1      18.917  10.397  20.187  0.00  0.00    +0.000 S 
ATOM      8  N   UNL     1      16.970   8.854  19.470  0.00  0.00    +0.000 NA
ATOM      9  N   UNL     1      16.985  10.991  18.458  0.00  0.00    +0.000 N 
ATOM     10  C   UNL     1      17.741   8.158  20.381  0.00  0.00    +0.000 A 
ATOM     11  C   UNL     1      18.837   8.829  20.880  0.00  0.00    +0.000 A 
ATOM     12  C   UNL     1      17.495  10.046  19.292  0.00  0.00    +0.000 A 
ATOM     13  H   UNL     1      16.467   6.417  23.319  0.00  0.00    +0.000 HD
ATOM     14  H   UNL     1      16.467   6.417  23.319  0.00  0.00    +0.000 HD
ENDBRANCH   6  10
BRANCH   5  15
ATOM     15  O   UNL     1      16.044   7.751  22.283  0.00  0.00    +0.000 OA
BRANCH  15  19
ATOM     16  O   UNL     1      14.397   9.888  23.311  0.00  0.00    +0.000 OA
ATOM     17  N   UNL     1      12.730   8.241  23.244  0.00  0.00    +0.000 N 
ATOM     18  C   UNL     1      13.959   6.526  22.291  0.00  0.00    +0.000 C 
ATOM     19  C   UNL     1      14.670   7.845  22.005  0.00  0.00    +0.000 C 
ATOM     20  C   UNL     1      12.545   6.956  22.625  0.00  0.00    +0.000 C 
ATOM     21  C   UNL     1      13.961   8.813  22.930  0.00  0.00    +0.000 C 
ATOM     22  H   UNL     1      18.930   4.864  20.132  0.00  0.00    +0.000 HD
ENDBRANCH  15  19
ENDBRANCH   5  15
ENDBRANCH   3   6
BRANCH   2  23
ATOM     23  O   UNL     1      19.037   4.942  18.051  0.00  0.00    +0.000 OA
BRANCH  23  25
ATOM     24  O   UNL     1      18.750   5.963  15.992  0.00  0.00    +0.000 OA
ATOM     25  C   UNL     1      19.417   5.371  16.822  0.00  0.00    +0.000 C 
BRANCH  25  32
ATOM     26  S   UNL     1      23.456   3.971  15.320  0.00  0.00    +0.000 S 
ATOM     27  O   UNL     1      19.289   2.181  16.351  0.00  0.00    +0.000 OA
ATOM     28  N   UNL     1      21.106   3.676  16.520  0.00  0.00    +0.000 N 
ATOM     29  C   UNL     1      22.451   3.131  16.565  0.00  0.00    +0.000 C 
ATOM     30  C   UNL     1      21.817   1.788  16.143  0.00  0.00    +0.000 C 
ATOM     31  C   UNL     1      20.455   2.502  16.371  0.00  0.00    +0.000 C 
ATOM     32  C   UNL     1      20.825   5.001  16.616  0.00  0.00    +0.000 C 
ATOM     33  C   UNL     1      21.789   5.940  16.467  0.00  0.00    +0.000 C 
ATOM     34  C   UNL     1      23.230   5.613  16.085  0.00  0.00    +0.000 C 
BRANCH  33  35
ATOM     35  C   UNL     1      21.572   7.426  16.638  0.00  0.00    +0.000 C 
BRANCH  35  36
ATOM     36  N   UNL     1      22.250   7.951  17.866  0.00  0.00    +0.000 N 
ATOM     37  C   UNL     1      21.838   7.523  19.066  0.00  0.00    +0.000 A 
ATOM     38  C   UNL     1      23.248   8.835  17.724  0.00  0.00    +0.000 A 
ATOM     39  C   UNL     1      22.447   7.993  20.221  0.00  0.00    +0.000 A 
ATOM     40  C   UNL     1      23.895   9.340  18.844  0.00  0.00    +0.000 A 
ATOM     41  C   UNL     1      23.486   8.911  20.103  0.00  0.00    +0.000 A 
ENDBRANCH  35  36
ENDBRANCH  33  35
ENDBRANCH  25  32
ENDBRANCH  23  25
ENDBRANCH   2  23
TORSDOF 9
ENDMDL
MODEL 5
REMARK minimizedAffinity -7.71625471
REMARK minimizedRMSD -1
REMARK  Name = 56607520
REMARK  9 active torsions:
REMARK  status: ('A' for Active; 'I' for Inactive)
REMARK    1  A    between atoms: O_4  and  N_12
REMARK    2  A    between atoms: O_4  and  C_23
REMARK    3  A    between atoms: O_6  and  N_13
REMARK    4  A    between atoms: O_6  and  C_25
REMARK    5  A    between atoms: N_10  and  C_22
REMARK    6  A    between atoms: C_19  and  C_23
REMARK    7  A    between atoms: C_20  and  C_22
REMARK    8  A    between atoms: C_33  and  C_34
REMARK    9  A    between atoms: C_34  and  C_35
REMARK                            x       y       z     vdW  Elec       q    Type
REMARK                         _______ _______ _______ _____ _____    ______ ____
ROOT
ATOM      1  O   UNL     1      19.667   9.992  20.827  0.00  0.00    +0.000 OA
ATOM      2  N   UNL     1      18.629   7.906  21.010  0.00  0.00    +0.000 N 
ATOM      3  C   UNL     1      19.564   8.802  20.579  0.00  0.00    +0.000 C 
ATOM      4  H   UNL     1      18.448   7.710  21.298  0.00  0.00    +0.000 HD
ENDROOT
BRANCH   3   6
ATOM      5  N   UNL     1      21.781   8.669  19.582  0.00  0.00    +0.000 NA
ATOM      6  C   UNL     1      20.585   8.169  19.671  0.00  0.00    +0.000 C 
BRANCH   6  10
ATOM      7  S   UNL     1      19.218   5.440  17.111  0.00  0.00    +0.000 S 
ATOM      8  N   UNL     1      20.584   5.709  19.290  0.00  0.00    +0.000 NA
ATOM      9  N   UNL     1      20.319   3.483  18.538  0.00  0.00    +0.000 N 
ATOM     10  C   UNL     1      20.199   6.971  18.879  0.00  0.00    +0.000 A 
ATOM     11  C   UNL     1      19.453   7.026  17.720  0.00  0.00    +0.000 A 
ATOM     12  C   UNL     1      20.123   4.824  18.434  0.00  0.00    +0.000 A 
ATOM     13  H   UNL     1      18.583   9.467  20.987  0.00  0.00    +0.000 HD
ATOM     14  H   UNL     1      18.583   9.467  20.987  0.00  0.00    +0.000 HD
ENDBRANCH   6  10
BRANCH   5  15
ATOM     15  O   UNL     1      22.581   7.945  18.686  0.00  0.00    +0.000 OA
BRANCH  15  19
ATOM     16  O   UNL     1      22.240   7.606  15.839  0.00  0.00    +0.000 OA
ATOM     17  N   UNL     1      24.321   8.682  15.758  0.00  0.00    +0.000 N 
ATOM     18  C   UNL     1      24.592   9.110  18.016  0.00  0.00    +0.000 C 
ATOM     19  C   UNL     1      23.112   8.847  17.749  0.00  0.00    +0.000 C 
ATOM     20  C   UNL     1      25.137   9.463  16.647  0.00  0.00    +0.000 C 
ATOM     21  C   UNL     1      23.124   8.279  16.344  0.00  0.00    +0.000 C 
ATOM     22  H   UNL     1      22.391   8.736  23.227  0.00  0.00    +0.000 HD
ENDBRANCH  15  19
ENDBRANCH   5  15
ENDBRANCH   3   6
BRANCH   2  23
ATOM     23  O   UNL     1      17.584   8.450  21.778  0.00  0.00    +0.000 OA
BRANCH  23  25
ATOM     24  O   UNL     1      16.088   9.182  20.170  0.00  0.00    +0.000 OA
ATOM     25  C   UNL     1      16.411   8.464  21.098  0.00  0.00    +0.000 C 
BRANCH  25  32
ATOM     26  S   UNL     1      13.007   5.796  22.449  0.00  0.00    +0.000 S 
ATOM     27  O   UNL     1      14.567  10.118  23.167  0.00  0.00    +0.000 OA
ATOM     28  N   UNL     1      14.717   7.813  22.687  0.00  0.00    +0.000 N 
ATOM     29  C   UNL     1      13.977   6.882  23.519  0.00  0.00    +0.000 C 
ATOM     30  C   UNL     1      13.246   8.118  24.086  0.00  0.00    +0.000 C 
ATOM     31  C   UNL     1      14.290   8.947  23.283  0.00  0.00    +0.000 C 
ATOM     32  C   UNL     1      15.532   7.433  21.669  0.00  0.00    +0.000 C 
ATOM     33  C   UNL     1      15.492   6.177  21.164  0.00  0.00    +0.000 C 
ATOM     34  C   UNL     1      14.481   5.124  21.608  0.00  0.00    +0.000 C 
BRANCH  33  35
ATOM     35  C   UNL     1      16.419   5.656  20.090  0.00  0.00    +0.000 C 
BRANCH  35  36
ATOM     36  N   UNL     1      17.134   4.413  20.525  0.00  0.00    +0.000 N 
ATOM     37  C   UNL     1      17.999   4.488  21.544  0.00  0.00    +0.000 A 
ATOM     38  C   UNL     1      16.885   3.266  19.879  0.00  0.00    +0.000 A 
ATOM     39  C   UNL     1      18.677   3.354  21.967  0.00  0.00    +0.000 A 
ATOM     40  C   UNL     1      17.533   2.098  20.258  0.00  0.00    +0.000 A 
ATOM     41  C   UNL     1      18.437   2.148  21.315  0.00  0.00    +0.000 A 
ENDBRANCH  35  36
ENDBRANCH  33  35
ENDBRANCH  25  32
ENDBRANCH  23  25
ENDBRANCH   2  23
TORSDOF 9
ENDMDL
MODEL 6
REMARK minimizedAffinity -7.49523544
REMARK minimizedRMSD -1
REMARK  Name = 56607520
REMARK  9 active torsions:
REMARK  status: ('A' for Active; 'I' for Inactive)
REMARK    1  A    between atoms: O_4  and  N_12
REMARK    2  A    between atoms: O_4  and  C_23
REMARK    3  A    between atoms: O_6  and  N_13
REMARK    4  A    between atoms: O_6  and  C_25
REMARK    5  A    between atoms: N_10  and  C_22
REMARK    6  A    between atoms: C_19  and  C_23
REMARK    7  A    between atoms: C_20  and  C_22
REMARK    8  A    between atoms: C_33  and  C_34
REMARK    9  A    between atoms: C_34  and  C_35
REMARK                            x       y       z     vdW  Elec       q    Type
REMARK                         _______ _______ _______ _____ _____    ______ ____
ROOT
ATOM      1  O   UNL     1      12.993   4.547  21.687  0.00  0.00    +0.000 OA
ATOM      2  N   UNL     1      12.869   5.850  23.623  0.00  0.00    +0.000 N 
ATOM      3  C   UNL     1      12.588   4.788  22.813  0.00  0.00    +0.000 C 
ATOM      4  H   UNL     1      13.122   6.068  23.829  0.00  0.00    +0.000 HD
ENDROOT
BRANCH   3   6
ATOM      5  N   UNL     1      10.384   3.800  23.115  0.00  0.00    +0.000 NA
ATOM      6  C   UNL     1      11.638   3.814  23.455  0.00  0.00    +0.000 C 
BRANCH   6  10
ATOM      7  S   UNL     1      13.110   0.834  25.653  0.00  0.00    +0.000 S 
ATOM      8  N   UNL     1      12.233   3.261  25.809  0.00  0.00    +0.000 NA
ATOM      9  N   UNL     1      12.923   2.308  27.860  0.00  0.00    +0.000 N 
ATOM     10  C   UNL     1      12.159   2.875  24.485  0.00  0.00    +0.000 A 
ATOM     11  C   UNL     1      12.589   1.594  24.206  0.00  0.00    +0.000 A 
ATOM     12  C   UNL     1      12.719   2.266  26.516  0.00  0.00    +0.000 A 
ATOM     13  H   UNL     1       9.218   3.209  22.357  0.00  0.00    +0.000 HD
ATOM     14  H   UNL     1       9.218   3.209  22.357  0.00  0.00    +0.000 HD
ENDBRANCH   6  10
BRANCH   5  15
ATOM     15  O   UNL     1       9.664   2.829  23.826  0.00  0.00    +0.000 OA
BRANCH  15  19
ATOM     16  O   UNL     1       7.349   1.103  23.802  0.00  0.00    +0.000 OA
ATOM     17  N   UNL     1       6.286   3.030  22.991  0.00  0.00    +0.000 N 
ATOM     18  C   UNL     1       8.067   4.502  23.117  0.00  0.00    +0.000 C 
ATOM     19  C   UNL     1       8.361   3.312  24.027  0.00  0.00    +0.000 C 
ATOM     20  C   UNL     1       6.565   4.438  22.931  0.00  0.00    +0.000 C 
ATOM     21  C   UNL     1       7.303   2.308  23.613  0.00  0.00    +0.000 C 
ATOM     22  H   UNL     1      13.488   5.299  24.572  0.00  0.00    +0.000 HD
ENDBRANCH  15  19
ENDBRANCH   5  15
ENDBRANCH   3   6
BRANCH   2  23
ATOM     23  O   UNL     1      13.669   6.852  23.047  0.00  0.00    +0.000 OA
BRANCH  23  25
ATOM     24  O   UNL     1      14.949   7.181  24.948  0.00  0.00    +0.000 OA
ATOM     25  C   UNL     1      14.814   7.048  23.746  0.00  0.00    +0.000 C 
BRANCH  25  32
ATOM     26  S   UNL     1      18.725   7.607  21.525  0.00  0.00    +0.000 S 
ATOM     27  O   UNL     1      15.265  10.203  23.233  0.00  0.00    +0.000 OA
ATOM     28  N   UNL     1      16.275   8.294  22.285  0.00  0.00    +0.000 N 
ATOM     29  C   UNL     1      17.180   8.474  21.164  0.00  0.00    +0.000 C 
ATOM     30  C   UNL     1      17.144   9.980  21.500  0.00  0.00    +0.000 C 
ATOM     31  C   UNL     1      16.016   9.602  22.501  0.00  0.00    +0.000 C 
ATOM     32  C   UNL     1      15.937   7.082  22.796  0.00  0.00    +0.000 C 
ATOM     33  C   UNL     1      16.639   5.966  22.492  0.00  0.00    +0.000 C 
ATOM     34  C   UNL     1      17.911   5.978  21.648  0.00  0.00    +0.000 C 
BRANCH  33  35
ATOM     35  C   UNL     1      16.280   4.573  22.954  0.00  0.00    +0.000 C 
BRANCH  35  36
ATOM     36  N   UNL     1      16.704   4.327  24.369  0.00  0.00    +0.000 N 
ATOM     37  C   UNL     1      15.856   3.706  25.199  0.00  0.00    +0.000 A 
ATOM     38  C   UNL     1      17.918   4.737  24.759  0.00  0.00    +0.000 A 
ATOM     39  C   UNL     1      16.222   3.465  26.516  0.00  0.00    +0.000 A 
ATOM     40  C   UNL     1      18.339   4.523  26.065  0.00  0.00    +0.000 A 
ATOM     41  C   UNL     1      17.478   3.879  26.948  0.00  0.00    +0.000 A 
ENDBRANCH  35  36
ENDBRANCH  33  35
ENDBRANCH  25  32
ENDBRANCH  23  25
ENDBRANCH   2  23
TORSDOF 9
ENDMDL
MODEL 7
REMARK minimizedAffinity -7.45530033
REMARK minimizedRMSD -1
REMARK  Name = 56607520
REMARK  9 active torsions:
REMARK  status: ('A' for Active; 'I' for Inactive)
REMARK    1  A    between atoms: O_4  and  N_12
REMARK    2  A    between atoms: O_4  and  C_23
REMARK    3  A    between atoms: O_6  and  N_13
REMARK    4  A    between atoms: O_6  and  C_25
REMARK    5  A    between atoms: N_10  and  C_22
REMARK    6  A    between atoms: C_19  and  C_23
REMARK    7  A    between atoms: C_20  and  C_22
REMARK    8  A    between atoms: C_33  and  C_34
REMARK    9  A    between atoms: C_34  and  C_35
REMARK                            x       y       z     vdW  Elec       q    Type
REMARK                         _______ _______ _______ _____ _____    ______ ____
ROOT
ATOM      1  O   UNL     1      18.752   4.291  20.296  0.00  0.00    +0.000 OA
ATOM      2  N   UNL     1      19.170   5.904  18.657  0.00  0.00    +0.000 N 
ATOM      3  C   UNL     1      18.715   5.427  19.852  0.00  0.00    +0.000 C 
ATOM      4  H   UNL     1      19.461   5.973  18.403  0.00  0.00    +0.000 HD
ENDROOT
BRANCH   3   6
ATOM      5  N   UNL     1      17.375   6.191  21.736  0.00  0.00    +0.000 NA
ATOM      6  C   UNL     1      18.089   6.505  20.697  0.00  0.00    +0.000 C 
BRANCH   6  10
ATOM      7  S   UNL     1      19.226  10.282  20.137  0.00  0.00    +0.000 S 
ATOM      8  N   UNL     1      17.444   8.547  19.428  0.00  0.00    +0.000 NA
ATOM      9  N   UNL     1      17.212  10.685  18.445  0.00  0.00    +0.000 N 
ATOM     10  C   UNL     1      18.300   7.928  20.318  0.00  0.00    +0.000 A 
ATOM     11  C   UNL     1      19.326   8.708  20.809  0.00  0.00    +0.000 A 
ATOM     12  C   UNL     1      17.835   9.791  19.258  0.00  0.00    +0.000 A 
ATOM     13  H   UNL     1      17.270   6.025  23.251  0.00  0.00    +0.000 HD
ATOM     14  H   UNL     1      17.270   6.025  23.251  0.00  0.00    +0.000 HD
ENDBRANCH   6  10
BRANCH   5  15
ATOM     15  O   UNL     1      16.877   7.329  22.386  0.00  0.00    +0.000 OA
BRANCH  15  19
ATOM     16  O   UNL     1      15.095   9.419  21.497  0.00  0.00    +0.000 OA
ATOM     17  N   UNL     1      13.718   8.561  23.190  0.00  0.00    +0.000 N 
ATOM     18  C   UNL     1      15.037   6.781  23.857  0.00  0.00    +0.000 C 
ATOM     19  C   UNL     1      15.479   7.212  22.462  0.00  0.00    +0.000 C 
ATOM     20  C   UNL     1      13.643   7.361  23.977  0.00  0.00    +0.000 C 
ATOM     21  C   UNL     1      14.779   8.544  22.288  0.00  0.00    +0.000 C 
ATOM     22  H   UNL     1      19.811   3.832  23.052  0.00  0.00    +0.000 HD
ENDBRANCH  15  19
ENDBRANCH   5  15
ENDBRANCH   3   6
BRANCH   2  23
ATOM     23  O   UNL     1      19.673   4.932  17.774  0.00  0.00    +0.000 OA
BRANCH  23  25
ATOM     24  O   UNL     1      19.028   5.763  15.711  0.00  0.00    +0.000 OA
ATOM     25  C   UNL     1      19.867   5.434  16.529  0.00  0.00    +0.000 C 
BRANCH  25  32
ATOM     26  S   UNL     1      24.371   5.885  16.724  0.00  0.00    +0.000 S 
ATOM     27  O   UNL     1      20.561   8.480  17.339  0.00  0.00    +0.000 OA
ATOM     28  N   UNL     1      21.881   6.756  16.418  0.00  0.00    +0.000 N 
ATOM     29  C   UNL     1      23.230   7.072  15.982  0.00  0.00    +0.000 C 
ATOM     30  C   UNL     1      23.053   8.413  16.727  0.00  0.00    +0.000 C 
ATOM     31  C   UNL     1      21.569   7.979  16.896  0.00  0.00    +0.000 C 
ATOM     32  C   UNL     1      21.314   5.529  16.288  0.00  0.00    +0.000 C 
ATOM     33  C   UNL     1      22.058   4.432  16.007  0.00  0.00    +0.000 C 
ATOM     34  C   UNL     1      23.582   4.451  15.916  0.00  0.00    +0.000 C 
BRANCH  33  35
ATOM     35  C   UNL     1      21.494   3.052  15.768  0.00  0.00    +0.000 C 
BRANCH  35  36
ATOM     36  N   UNL     1      21.571   2.659  14.324  0.00  0.00    +0.000 N 
ATOM     37  C   UNL     1      22.636   1.966  13.899  0.00  0.00    +0.000 A 
ATOM     38  C   UNL     1      20.573   3.016  13.504  0.00  0.00    +0.000 A 
ATOM     39  C   UNL     1      22.734   1.590  12.567  0.00  0.00    +0.000 A 
ATOM     40  C   UNL     1      20.617   2.667  12.161  0.00  0.00    +0.000 A 
ATOM     41  C   UNL     1      21.711   1.946  11.693  0.00  0.00    +0.000 A 
ENDBRANCH  35  36
ENDBRANCH  33  35
ENDBRANCH  25  32
ENDBRANCH  23  25
ENDBRANCH   2  23
TORSDOF 9
ENDMDL
MODEL 8
REMARK minimizedAffinity -7.40122271
REMARK minimizedRMSD -1
REMARK  Name = 56607520
REMARK  9 active torsions:
REMARK  status: ('A' for Active; 'I' for Inactive)
REMARK    1  A    between atoms: O_4  and  N_12
REMARK    2  A    between atoms: O_4  and  C_23
REMARK    3  A    between atoms: O_6  and  N_13
REMARK    4  A    between atoms: O_6  and  C_25
REMARK    5  A    between atoms: N_10  and  C_22
REMARK    6  A    between atoms: C_19  and  C_23
REMARK    7  A    between atoms: C_20  and  C_22
REMARK    8  A    between atoms: C_33  and  C_34
REMARK    9  A    between atoms: C_34  and  C_35
REMARK                            x       y       z     vdW  Elec       q    Type
REMARK                         _______ _______ _______ _____ _____    ______ ____
ROOT
ATOM      1  O   UNL     1      12.495   7.578  22.085  0.00  0.00    +0.000 OA
ATOM      2  N   UNL     1      14.643   6.717  21.756  0.00  0.00    +0.000 N 
ATOM      3  C   UNL     1      13.379   6.756  22.268  0.00  0.00    +0.000 C 
ATOM      4  H   UNL     1      14.890   6.695  21.452  0.00  0.00    +0.000 HD
ENDROOT
BRANCH   3   6
ATOM      5  N   UNL     1      11.905   5.078  23.237  0.00  0.00    +0.000 NA
ATOM      6  C   UNL     1      13.096   5.594  23.183  0.00  0.00    +0.000 C 
BRANCH   6  10
ATOM      7  S   UNL     1      15.953   4.753  25.829  0.00  0.00    +0.000 S 
ATOM      8  N   UNL     1      14.802   3.856  23.695  0.00  0.00    +0.000 NA
ATOM      9  N   UNL     1      16.533   2.492  24.553  0.00  0.00    +0.000 N 
ATOM     10  C   UNL     1      14.200   5.055  24.021  0.00  0.00    +0.000 A 
ATOM     11  C   UNL     1      14.688   5.688  25.145  0.00  0.00    +0.000 A 
ATOM     12  C   UNL     1      15.741   3.597  24.578  0.00  0.00    +0.000 A 
ATOM     13  H   UNL     1      13.646   7.827  21.721  0.00  0.00    +0.000 HD
ATOM     14  H   UNL     1      13.646   7.827  21.721  0.00  0.00    +0.000 HD
ENDBRANCH   6  10
BRANCH   5  15
ATOM     15  O   UNL     1      11.842   4.012  24.146  0.00  0.00    +0.000 OA
BRANCH  15  19
ATOM     16  O   UNL     1      12.396   1.912  22.243  0.00  0.00    +0.000 OA
ATOM     17  N   UNL     1      10.159   2.273  21.638  0.00  0.00    +0.000 N 
ATOM     18  C   UNL     1       9.609   3.861  23.230  0.00  0.00    +0.000 C 
ATOM     19  C   UNL     1      10.855   3.117  23.702  0.00  0.00    +0.000 C 
ATOM     20  C   UNL     1       9.008   2.921  22.204  0.00  0.00    +0.000 C 
ATOM     21  C   UNL     1      11.281   2.360  22.460  0.00  0.00    +0.000 C 
ATOM     22  H   UNL     1      11.308   6.904  27.701  0.00  0.00    +0.000 HD
ENDBRANCH  15  19
ENDBRANCH   5  15
ENDBRANCH   3   6
BRANCH   2  23
ATOM     23  O   UNL     1      15.011   7.828  20.976  0.00  0.00    +0.000 OA
BRANCH  23  25
ATOM     24  O   UNL     1      15.648   9.404  22.548  0.00  0.00    +0.000 OA
ATOM     25  C   UNL     1      15.879   8.639  21.630  0.00  0.00    +0.000 C 
BRANCH  25  32
ATOM     26  S   UNL     1      20.151   8.962  20.154  0.00  0.00    +0.000 S 
ATOM     27  O   UNL     1      16.015  10.938  19.368  0.00  0.00    +0.000 OA
ATOM     28  N   UNL     1      17.515   9.215  19.954  0.00  0.00    +0.000 N 
ATOM     29  C   UNL     1      18.676   8.990  19.111  0.00  0.00    +0.000 C 
ATOM     30  C   UNL     1      18.333  10.339  18.443  0.00  0.00    +0.000 C 
ATOM     31  C   UNL     1      17.024  10.278  19.282  0.00  0.00    +0.000 C 
ATOM     32  C   UNL     1      17.214   8.459  21.041  0.00  0.00    +0.000 C 
ATOM     33  C   UNL     1      18.124   7.623  21.595  0.00  0.00    +0.000 C 
ATOM     34  C   UNL     1      19.573   7.528  21.124  0.00  0.00    +0.000 C 
BRANCH  33  35
ATOM     35  C   UNL     1      17.843   6.693  22.752  0.00  0.00    +0.000 C 
BRANCH  35  36
ATOM     36  N   UNL     1      18.192   5.274  22.426  0.00  0.00    +0.000 N 
ATOM     37  C   UNL     1      19.161   4.669  23.126  0.00  0.00    +0.000 A 
ATOM     38  C   UNL     1      17.524   4.654  21.443  0.00  0.00    +0.000 A 
ATOM     39  C   UNL     1      19.505   3.355  22.845  0.00  0.00    +0.000 A 
ATOM     40  C   UNL     1      17.826   3.339  21.117  0.00  0.00    +0.000 A 
ATOM     41  C   UNL     1      18.828   2.687  21.829  0.00  0.00    +0.000 A 
ENDBRANCH  35  36
ENDBRANCH  33  35
ENDBRANCH  25  32
ENDBRANCH  23  25
ENDBRANCH   2  23
TORSDOF 9
ENDMDL
MODEL 9
REMARK minimizedAffinity -7.37728119
REMARK minimizedRMSD -1
REMARK  Name = 56607520
REMARK  9 active torsions:
REMARK  status: ('A' for Active; 'I' for Inactive)
REMARK    1  A    between atoms: O_4  and  N_12
REMARK    2  A    between atoms: O_4  and  C_23
REMARK    3  A    between atoms: O_6  and  N_13
REMARK    4  A    between atoms: O_6  and  C_25
REMARK    5  A    between atoms: N_10  and  C_22
REMARK    6  A    between atoms: C_19  and  C_23
REMARK    7  A    between atoms: C_20  and  C_22
REMARK    8  A    between atoms: C_33  and  C_34
REMARK    9  A    between atoms: C_34  and  C_35
REMARK                            x       y       z     vdW  Elec       q    Type
REMARK                         _______ _______ _______ _____ _____    ______ ____
ROOT
ATOM      1  O   UNL     1      18.526   4.269  20.519  0.00  0.00    +0.000 OA
ATOM      2  N   UNL     1      18.742   5.756  18.729  0.00  0.00    +0.000 N 
ATOM      3  C   UNL     1      18.394   5.360  19.988  0.00  0.00    +0.000 C 
ATOM      4  H   UNL     1      19.011   5.819  18.450  0.00  0.00    +0.000 HD
ENDROOT
BRANCH   3   6
ATOM      5  N   UNL     1      18.173   7.695  20.638  0.00  0.00    +0.000 NA
ATOM      6  C   UNL     1      17.764   6.471  20.784  0.00  0.00    +0.000 C 
BRANCH   6  10
ATOM      7  S   UNL     1      14.407   5.611  22.750  0.00  0.00    +0.000 S 
ATOM      8  N   UNL     1      16.945   5.975  23.082  0.00  0.00    +0.000 NA
ATOM      9  N   UNL     1      15.737   5.470  25.051  0.00  0.00    +0.000 N 
ATOM     10  C   UNL     1      16.672   6.141  21.738  0.00  0.00    +0.000 A 
ATOM     11  C   UNL     1      15.352   5.982  21.368  0.00  0.00    +0.000 A 
ATOM     12  C   UNL     1      15.826   5.693  23.713  0.00  0.00    +0.000 A 
ATOM     13  H   UNL     1      17.736   8.975  19.708  0.00  0.00    +0.000 HD
ATOM     14  H   UNL     1      17.736   8.975  19.708  0.00  0.00    +0.000 HD
ENDBRANCH   6  10
BRANCH   5  15
ATOM     15  O   UNL     1      17.468   8.580  21.467  0.00  0.00    +0.000 OA
BRANCH  15  19
ATOM     16  O   UNL     1      15.374   9.690  19.817  0.00  0.00    +0.000 OA
ATOM     17  N   UNL     1      17.169  10.804  18.800  0.00  0.00    +0.000 N 
ATOM     18  C   UNL     1      18.877  10.062  20.174  0.00  0.00    +0.000 C 
ATOM     19  C   UNL     1      17.552   9.865  20.904  0.00  0.00    +0.000 C 
ATOM     20  C   UNL     1      18.543  11.089  19.113  0.00  0.00    +0.000 C 
ATOM     21  C   UNL     1      16.531  10.079  19.804  0.00  0.00    +0.000 C 
ATOM     22  H   UNL     1      20.344   6.974  24.697  0.00  0.00    +0.000 HD
ENDBRANCH  15  19
ENDBRANCH   5  15
ENDBRANCH   3   6
BRANCH   2  23
ATOM     23  O   UNL     1      19.241   4.741  17.894  0.00  0.00    +0.000 OA
BRANCH  23  25
ATOM     24  O   UNL     1      18.929   5.785  15.851  0.00  0.00    +0.000 OA
ATOM     25  C   UNL     1      19.616   5.222  16.683  0.00  0.00    +0.000 C 
BRANCH  25  32
ATOM     26  S   UNL     1      23.771   4.120  15.248  0.00  0.00    +0.000 S 
ATOM     27  O   UNL     1      19.720   2.035  16.181  0.00  0.00    +0.000 OA
ATOM     28  N   UNL     1      21.424   3.651  16.399  0.00  0.00    +0.000 N 
ATOM     29  C   UNL     1      22.803   3.200  16.465  0.00  0.00    +0.000 C 
ATOM     30  C   UNL     1      22.272   1.820  16.018  0.00  0.00    +0.000 C 
ATOM     31  C   UNL     1      20.859   2.437  16.227  0.00  0.00    +0.000 C 
ATOM     32  C   UNL     1      21.050   4.952  16.501  0.00  0.00    +0.000 C 
ATOM     33  C   UNL     1      21.949   5.958  16.380  0.00  0.00    +0.000 C 
ATOM     34  C   UNL     1      23.416   5.735  16.023  0.00  0.00    +0.000 C 
BRANCH  33  35
ATOM     35  C   UNL     1      21.627   7.423  16.561  0.00  0.00    +0.000 C 
BRANCH  35  36
ATOM     36  N   UNL     1      22.169   7.959  17.849  0.00  0.00    +0.000 N 
ATOM     37  C   UNL     1      21.612   7.561  19.001  0.00  0.00    +0.000 A 
ATOM     38  C   UNL     1      23.194   8.821  17.809  0.00  0.00    +0.000 A 
ATOM     39  C   UNL     1      22.094   8.043  20.210  0.00  0.00    +0.000 A 
ATOM     40  C   UNL     1      23.718   9.336  18.988  0.00  0.00    +0.000 A 
ATOM     41  C   UNL     1      23.158   8.939  20.198  0.00  0.00    +0.000 A 
ENDBRANCH  35  36
ENDBRANCH  33  35
ENDBRANCH  25  32
ENDBRANCH  23  25
ENDBRANCH   2  23
TORSDOF 9
ENDMDL
MODEL 10
REMARK minimizedAffinity -7.31684875
REMARK minimizedRMSD -1
REMARK  Name = 56607520
REMARK  9 active torsions:
REMARK  status: ('A' for Active; 'I' for Inactive)
REMARK    1  A    between atoms: O_4  and  N_12
REMARK    2  A    between atoms: O_4  and  C_23
REMARK    3  A    between atoms: O_6  and  N_13
REMARK    4  A    between atoms: O_6  and  C_25
REMARK    5  A    between atoms: N_10  and  C_22
REMARK    6  A    between atoms: C_19  and  C_23
REMARK    7  A    between atoms: C_20  and  C_22
REMARK    8  A    between atoms: C_33  and  C_34
REMARK    9  A    between atoms: C_34  and  C_35
REMARK                            x       y       z     vdW  Elec       q    Type
REMARK                         _______ _______ _______ _____ _____    ______ ____
ROOT
ATOM      1  O   UNL     1      21.801   8.752  19.997  0.00  0.00    +0.000 OA
ATOM      2  N   UNL     1      22.585   9.049  17.815  0.00  0.00    +0.000 N 
ATOM      3  C   UNL     1      21.682   8.716  18.783  0.00  0.00    +0.000 C 
ATOM      4  H   UNL     1      22.816   9.311  17.635  0.00  0.00    +0.000 HD
ENDROOT
BRANCH   3   6
ATOM      5  N   UNL     1      20.360   7.392  17.226  0.00  0.00    +0.000 NA
ATOM      6  C   UNL     1      20.374   8.244  18.206  0.00  0.00    +0.000 C 
BRANCH   6  10
ATOM      7  S   UNL     1      17.010   9.076  20.172  0.00  0.00    +0.000 S 
ATOM      8  N   UNL     1      18.546   9.932  18.276  0.00  0.00    +0.000 NA
ATOM      9  N   UNL     1      16.635  11.259  18.699  0.00  0.00    +0.000 N 
ATOM     10  C   UNL     1      19.106   8.772  18.776  0.00  0.00    +0.000 A 
ATOM     11  C   UNL     1      18.417   8.166  19.806  0.00  0.00    +0.000 A 
ATOM     12  C   UNL     1      17.438  10.188  18.937  0.00  0.00    +0.000 A 
ATOM     13  H   UNL     1      20.205   5.933  16.771  0.00  0.00    +0.000 HD
ATOM     14  H   UNL     1      20.205   5.933  16.771  0.00  0.00    +0.000 HD
ENDBRANCH   6  10
BRANCH   5  15
ATOM     15  O   UNL     1      19.052   7.080  16.828  0.00  0.00    +0.000 OA
BRANCH  15  19
ATOM     16  O   UNL     1      18.274   4.958  18.624  0.00  0.00    +0.000 OA
ATOM     17  N   UNL     1      19.776   3.708  17.327  0.00  0.00    +0.000 N 
ATOM     18  C   UNL     1      20.336   5.325  15.769  0.00  0.00    +0.000 C 
ATOM     19  C   UNL     1      19.025   5.732  16.435  0.00  0.00    +0.000 C 
ATOM     20  C   UNL     1      20.426   3.840  16.052  0.00  0.00    +0.000 C 
ATOM     21  C   UNL     1      18.947   4.789  17.619  0.00  0.00    +0.000 C 
ATOM     22  H   UNL     1      19.534  10.620  13.908  0.00  0.00    +0.000 HD
ENDBRANCH  15  19
ENDBRANCH   5  15
ENDBRANCH   3   6
BRANCH   2  23
ATOM     23  O   UNL     1      23.865   9.400  18.281  0.00  0.00    +0.000 OA
BRANCH  23  25
ATOM     24  O   UNL     1      25.097   9.727  16.348  0.00  0.00    +0.000 OA
ATOM     25  C   UNL     1      24.828   9.120  17.368  0.00  0.00    +0.000 C 
BRANCH  25  32
ATOM     26  S   UNL     1      27.308   5.352  17.800  0.00  0.00    +0.000 S 
ATOM     27  O   UNL     1      23.432   6.768  15.655  0.00  0.00    +0.000 OA
ATOM     28  N   UNL     1      25.079   6.721  17.343  0.00  0.00    +0.000 N 
ATOM     29  C   UNL     1      25.504   5.434  17.862  0.00  0.00    +0.000 C 
ATOM     30  C   UNL     1      24.748   4.811  16.668  0.00  0.00    +0.000 C 
ATOM     31  C   UNL     1      24.220   6.252  16.413  0.00  0.00    +0.000 C 
ATOM     32  C   UNL     1      25.543   7.911  17.804  0.00  0.00    +0.000 C 
ATOM     33  C   UNL     1      26.650   7.986  18.581  0.00  0.00    +0.000 C 
ATOM     34  C   UNL     1      27.521   6.779  18.919  0.00  0.00    +0.000 C 
BRANCH  33  35
ATOM     35  C   UNL     1      27.181   9.258  19.198  0.00  0.00    +0.000 C 
BRANCH  35  36
ATOM     36  N   UNL     1      26.556   9.536  20.530  0.00  0.00    +0.000 N 
ATOM     37  C   UNL     1      26.765   8.675  21.535  0.00  0.00    +0.000 A 
ATOM     38  C   UNL     1      25.807  10.638  20.675  0.00  0.00    +0.000 A 
ATOM     39  C   UNL     1      26.198   8.907  22.780  0.00  0.00    +0.000 A 
ATOM     40  C   UNL     1      25.215  10.922  21.898  0.00  0.00    +0.000 A 
ATOM     41  C   UNL     1      25.416  10.044  22.959  0.00  0.00    +0.000 A 
ENDBRANCH  35  36
ENDBRANCH  33  35
ENDBRANCH  25  32
ENDBRANCH  23  25
ENDBRANCH   2  23
TORSDOF 9
ENDMDL
MODEL 11
REMARK minimizedAffinity -7.30354548
REMARK minimizedRMSD -1
REMARK  Name = 56607520
REMARK  9 active torsions:
REMARK  status: ('A' for Active; 'I' for Inactive)
REMARK    1  A    between atoms: O_4  and  N_12
REMARK    2  A    between atoms: O_4  and  C_23
REMARK    3  A    between atoms: O_6  and  N_13
REMARK    4  A    between atoms: O_6  and  C_25
REMARK    5  A    between atoms: N_10  and  C_22
REMARK    6  A    between atoms: C_19  and  C_23
REMARK    7  A    between atoms: C_20  and  C_22
REMARK    8  A    between atoms: C_33  and  C_34
REMARK    9  A    between atoms: C_34  and  C_35
REMARK                            x       y       z     vdW  Elec       q    Type
REMARK                         _______ _______ _______ _____ _____    ______ ____
ROOT
ATOM      1  O   UNL     1      18.623   6.590  16.733  0.00  0.00    +0.000 OA
ATOM      2  N   UNL     1      19.721   5.588  18.537  0.00  0.00    +0.000 N 
ATOM      3  C   UNL     1      19.603   6.113  17.283  0.00  0.00    +0.000 C 
ATOM      4  H   UNL     1      19.704   5.624  18.928  0.00  0.00    +0.000 HD
ENDROOT
BRANCH   3   6
ATOM      5  N   UNL     1      21.669   7.115  16.473  0.00  0.00    +0.000 NA
ATOM      6  C   UNL     1      20.900   6.069  16.520  0.00  0.00    +0.000 C 
BRANCH   6  10
ATOM      7  S   UNL     1      22.490   2.701  15.104  0.00  0.00    +0.000 S 
ATOM      8  N   UNL     1      20.497   4.320  14.796  0.00  0.00    +0.000 NA
ATOM      9  N   UNL     1      20.523   2.466  13.328  0.00  0.00    +0.000 N 
ATOM     10  C   UNL     1      21.280   4.812  15.821  0.00  0.00    +0.000 A 
ATOM     11  C   UNL     1      22.401   4.072  16.132  0.00  0.00    +0.000 A 
ATOM     12  C   UNL     1      21.038   3.210  14.342  0.00  0.00    +0.000 A 
ATOM     13  H   UNL     1      22.489   8.241  16.086  0.00  0.00    +0.000 HD
ATOM     14  H   UNL     1      22.489   8.241  16.086  0.00  0.00    +0.000 HD
ENDBRANCH   6  10
BRANCH   5  15
ATOM     15  O   UNL     1      22.823   6.877  15.714  0.00  0.00    +0.000 OA
BRANCH  15  19
ATOM     16  O   UNL     1      25.656   6.348  15.886  0.00  0.00    +0.000 OA
ATOM     17  N   UNL     1      25.587   8.083  17.461  0.00  0.00    +0.000 N 
ATOM     18  C   UNL     1      23.352   8.652  17.270  0.00  0.00    +0.000 C 
ATOM     19  C   UNL     1      23.761   7.878  16.020  0.00  0.00    +0.000 C 
ATOM     20  C   UNL     1      24.675   9.129  17.834  0.00  0.00    +0.000 C 
ATOM     21  C   UNL     1      25.109   7.304  16.410  0.00  0.00    +0.000 C 
ATOM     22  H   UNL     1      18.405   7.698  14.672  0.00  0.00    +0.000 HD
ENDBRANCH  15  19
ENDBRANCH   5  15
ENDBRANCH   3   6
BRANCH   2  23
ATOM     23  O   UNL     1      18.523   5.502  19.269  0.00  0.00    +0.000 OA
BRANCH  23  25
ATOM     24  O   UNL     1      19.267   5.388  21.459  0.00  0.00    +0.000 OA
ATOM     25  C   UNL     1      18.679   5.935  20.545  0.00  0.00    +0.000 C 
BRANCH  25  32
ATOM     26  S   UNL     1      16.795  10.026  20.040  0.00  0.00    +0.000 S 
ATOM     27  O   UNL     1      21.016   8.075  19.930  0.00  0.00    +0.000 OA
ATOM     28  N   UNL     1      18.772   8.345  20.605  0.00  0.00    +0.000 N 
ATOM     29  C   UNL     1      18.310   9.675  20.961  0.00  0.00    +0.000 C 
ATOM     30  C   UNL     1      19.626  10.193  20.342  0.00  0.00    +0.000 C 
ATOM     31  C   UNL     1      20.028   8.693  20.253  0.00  0.00    +0.000 C 
ATOM     32  C   UNL     1      17.998   7.232  20.681  0.00  0.00    +0.000 C 
ATOM     33  C   UNL     1      16.653   7.313  20.814  0.00  0.00    +0.000 C 
ATOM     34  C   UNL     1      15.885   8.632  20.789  0.00  0.00    +0.000 C 
BRANCH  33  35
ATOM     35  C   UNL     1      15.734   6.126  20.985  0.00  0.00    +0.000 C 
BRANCH  35  36
ATOM     36  N   UNL     1      15.029   6.151  22.306  0.00  0.00    +0.000 N 
ATOM     37  C   UNL     1      15.756   6.073  23.429  0.00  0.00    +0.000 A 
ATOM     38  C   UNL     1      13.693   6.250  22.323  0.00  0.00    +0.000 A 
ATOM     39  C   UNL     1      15.130   6.093  24.667  0.00  0.00    +0.000 A 
ATOM     40  C   UNL     1      13.011   6.275  23.532  0.00  0.00    +0.000 A 
ATOM     41  C   UNL     1      13.743   6.195  24.714  0.00  0.00    +0.000 A 
ENDBRANCH  35  36
ENDBRANCH  33  35
ENDBRANCH  25  32
ENDBRANCH  23  25
ENDBRANCH   2  23
TORSDOF 9
ENDMDL
MODEL 12
REMARK minimizedAffinity -7.24119616
REMARK minimizedRMSD -1
REMARK  Name = 56607520
REMARK  9 active torsions:
REMARK  status: ('A' for Active; 'I' for Inactive)
REMARK    1  A    between atoms: O_4  and  N_12
REMARK    2  A    between atoms: O_4  and  C_23
REMARK    3  A    between atoms: O_6  and  N_13
REMARK    4  A    between atoms: O_6  and  C_25
REMARK    5  A    between atoms: N_10  and  C_22
REMARK    6  A    between atoms: C_19  and  C_23
REMARK    7  A    between atoms: C_20  and  C_22
REMARK    8  A    between atoms: C_33  and  C_34
REMARK    9  A    between atoms: C_34  and  C_35
REMARK                            x       y       z     vdW  Elec       q    Type
REMARK                         _______ _______ _______ _____ _____    ______ ____
ROOT
ATOM      1  O   UNL     1      17.943   3.880  19.079  0.00  0.00    +0.000 OA
ATOM      2  N   UNL     1      16.815   5.812  19.755  0.00  0.00    +0.000 N 
ATOM      3  C   UNL     1      17.776   5.089  19.111  0.00  0.00    +0.000 C 
ATOM      4  H   UNL     1      16.439   5.909  19.814  0.00  0.00    +0.000 HD
ENDROOT
BRANCH   3   6
ATOM      5  N   UNL     1      18.605   7.256  18.374  0.00  0.00    +0.000 NA
ATOM      6  C   UNL     1      18.737   5.964  18.351  0.00  0.00    +0.000 C 
BRANCH   6  10
ATOM      7  S   UNL     1      22.069   4.355  16.872  0.00  0.00    +0.000 S 
ATOM      8  N   UNL     1      19.611   4.898  16.278  0.00  0.00    +0.000 NA
ATOM      9  N   UNL     1      20.854   3.855  14.558  0.00  0.00    +0.000 N 
ATOM     10  C   UNL     1      19.832   5.323  17.574  0.00  0.00    +0.000 A 
ATOM     11  C   UNL     1      21.102   5.114  18.069  0.00  0.00    +0.000 A 
ATOM     12  C   UNL     1      20.721   4.372  15.808  0.00  0.00    +0.000 A 
ATOM     13  H   UNL     1      19.002   8.625  18.876  0.00  0.00    +0.000 HD
ATOM     14  H   UNL     1      19.002   8.625  18.876  0.00  0.00    +0.000 HD
ENDBRANCH   6  10
BRANCH   5  15
ATOM     15  O   UNL     1      19.590   7.892  17.605  0.00  0.00    +0.000 OA
BRANCH  15  19
ATOM     16  O   UNL     1      21.525   8.280  19.713  0.00  0.00    +0.000 OA
ATOM     17  N   UNL     1      20.061  10.002  20.339  0.00  0.00    +0.000 N 
ATOM     18  C   UNL     1      18.546   9.836  18.597  0.00  0.00    +0.000 C 
ATOM     19  C   UNL     1      19.843   9.151  18.174  0.00  0.00    +0.000 C 
ATOM     20  C   UNL     1      18.980  10.733  19.737  0.00  0.00    +0.000 C 
ATOM     21  C   UNL     1      20.606   9.050  19.480  0.00  0.00    +0.000 C 
ATOM     22  H   UNL     1      17.115   7.234  13.768  0.00  0.00    +0.000 HD
ENDBRANCH  15  19
ENDBRANCH   5  15
ENDBRANCH   3   6
BRANCH   2  23
ATOM     23  O   UNL     1      15.945   5.066  20.570  0.00  0.00    +0.000 OA
BRANCH  23  25
ATOM     24  O   UNL     1      16.997   4.919  22.628  0.00  0.00    +0.000 OA
ATOM     25  C   UNL     1      16.128   5.338  21.886  0.00  0.00    +0.000 C 
BRANCH  25  32
ATOM     26  S   UNL     1      12.974   8.558  22.352  0.00  0.00    +0.000 S 
ATOM     27  O   UNL     1      17.583   8.219  21.839  0.00  0.00    +0.000 OA
ATOM     28  N   UNL     1      15.427   7.556  22.526  0.00  0.00    +0.000 N 
ATOM     29  C   UNL     1      14.577   8.532  23.184  0.00  0.00    +0.000 C 
ATOM     30  C   UNL     1      15.605   9.591  22.727  0.00  0.00    +0.000 C 
ATOM     31  C   UNL     1      16.471   8.377  22.286  0.00  0.00    +0.000 C 
ATOM     32  C   UNL     1      15.069   6.262  22.319  0.00  0.00    +0.000 C 
ATOM     33  C   UNL     1      13.784   5.854  22.449  0.00  0.00    +0.000 C 
ATOM     34  C   UNL     1      12.625   6.807  22.730  0.00  0.00    +0.000 C 
BRANCH  33  35
ATOM     35  C   UNL     1      13.321   4.423  22.315  0.00  0.00    +0.000 C 
BRANCH  35  36
ATOM     36  N   UNL     1      12.935   3.835  23.638  0.00  0.00    +0.000 N 
ATOM     37  C   UNL     1      11.729   3.266  23.765  0.00  0.00    +0.000 A 
ATOM     38  C   UNL     1      13.809   3.898  24.652  0.00  0.00    +0.000 A 
ATOM     39  C   UNL     1      11.345   2.714  24.979  0.00  0.00    +0.000 A 
ATOM     40  C   UNL     1      13.479   3.362  25.890  0.00  0.00    +0.000 A 
ATOM     41  C   UNL     1      12.232   2.764  26.049  0.00  0.00    +0.000 A 
ENDBRANCH  35  36
ENDBRANCH  33  35
ENDBRANCH  25  32
ENDBRANCH  23  25
ENDBRANCH   2  23
TORSDOF 9
ENDMDL
MODEL 13
REMARK minimizedAffinity -7.16081762
REMARK minimizedRMSD -1
REMARK  Name = 56607520
REMARK  9 active torsions:
REMARK  status: ('A' for Active; 'I' for Inactive)
REMARK    1  A    between atoms: O_4  and  N_12
REMARK    2  A    between atoms: O_4  and  C_23
REMARK    3  A    between atoms: O_6  and  N_13
REMARK    4  A    between atoms: O_6  and  C_25
REMARK    5  A    between atoms: N_10  and  C_22
REMARK    6  A    between atoms: C_19  and  C_23
REMARK    7  A    between atoms: C_20  and  C_22
REMARK    8  A    between atoms: C_33  and  C_34
REMARK    9  A    between atoms: C_34  and  C_35
REMARK                            x       y       z     vdW  Elec       q    Type
REMARK                         _______ _______ _______ _____ _____    ______ ____
ROOT
ATOM      1  O   UNL     1      23.062   9.502  20.138  0.00  0.00    +0.000 OA
ATOM      2  N   UNL     1      22.115   8.937  18.077  0.00  0.00    +0.000 N 
ATOM      3  C   UNL     1      22.147   9.114  19.430  0.00  0.00    +0.000 C 
ATOM      4  H   UNL     1      22.141   9.078  17.711  0.00  0.00    +0.000 HD
ENDROOT
BRANCH   3   6
ATOM      5  N   UNL     1      20.141   9.677  20.689  0.00  0.00    +0.000 NA
ATOM      6  C   UNL     1      20.837   8.763  20.083  0.00  0.00    +0.000 C 
BRANCH   6  10
ATOM      7  S   UNL     1      19.962   4.901  20.530  0.00  0.00    +0.000 S 
ATOM      8  N   UNL     1      19.515   6.946  19.011  0.00  0.00    +0.000 NA
ATOM      9  N   UNL     1      18.434   4.948  18.352  0.00  0.00    +0.000 N 
ATOM     10  C   UNL     1      20.360   7.355  20.025  0.00  0.00    +0.000 A 
ATOM     11  C   UNL     1      20.713   6.387  20.942  0.00  0.00    +0.000 A 
ATOM     12  C   UNL     1      19.239   5.671  19.176  0.00  0.00    +0.000 A 
ATOM     13  H   UNL     1      23.477   9.185  19.555  0.00  0.00    +0.000 HD
ATOM     14  H   UNL     1      23.477   9.185  19.555  0.00  0.00    +0.000 HD
ENDBRANCH   6  10
BRANCH   5  15
ATOM     15  O   UNL     1      18.960   9.154  21.235  0.00  0.00    +0.000 OA
BRANCH  15  19
ATOM     16  O   UNL     1      16.194   8.348  21.432  0.00  0.00    +0.000 OA
ATOM     17  N   UNL     1      15.946   9.799  19.607  0.00  0.00    +0.000 N 
ATOM     18  C   UNL     1      18.117  10.593  19.483  0.00  0.00    +0.000 C 
ATOM     19  C   UNL     1      17.899  10.001  20.872  0.00  0.00    +0.000 C 
ATOM     20  C   UNL     1      16.709  10.848  18.987  0.00  0.00    +0.000 C 
ATOM     21  C   UNL     1      16.592   9.251  20.713  0.00  0.00    +0.000 C 
ATOM     22  H   UNL     1      23.339  10.533  21.688  0.00  0.00    +0.000 HD
ENDBRANCH  15  19
ENDBRANCH   5  15
ENDBRANCH   3   6
BRANCH   2  23
ATOM     23  O   UNL     1      23.338   9.147  17.414  0.00  0.00    +0.000 OA
BRANCH  23  25
ATOM     24  O   UNL     1      22.814   8.007  15.468  0.00  0.00    +0.000 OA
ATOM     25  C   UNL     1      23.534   8.246  16.420  0.00  0.00    +0.000 C 
BRANCH  25  32
ATOM     26  S   UNL     1      27.634   6.853  17.757  0.00  0.00    +0.000 S 
ATOM     27  O   UNL     1      25.738  10.333  15.322  0.00  0.00    +0.000 OA
ATOM     28  N   UNL     1      25.932   8.144  16.179  0.00  0.00    +0.000 N 
ATOM     29  C   UNL     1      27.225   7.486  16.114  0.00  0.00    +0.000 C 
ATOM     30  C   UNL     1      27.803   8.870  15.748  0.00  0.00    +0.000 C 
ATOM     31  C   UNL     1      26.319   9.325  15.652  0.00  0.00    +0.000 C 
ATOM     32  C   UNL     1      24.809   7.555  16.665  0.00  0.00    +0.000 C 
ATOM     33  C   UNL     1      24.867   6.416  17.395  0.00  0.00    +0.000 C 
ATOM     34  C   UNL     1      26.176   5.756  17.818  0.00  0.00    +0.000 C 
BRANCH  33  35
ATOM     35  C   UNL     1      23.662   5.659  17.901  0.00  0.00    +0.000 C 
BRANCH  35  36
ATOM     36  N   UNL     1      22.995   4.878  16.811  0.00  0.00    +0.000 N 
ATOM     37  C   UNL     1      23.729   4.025  16.084  0.00  0.00    +0.000 A 
ATOM     38  C   UNL     1      21.684   5.057  16.598  0.00  0.00    +0.000 A 
ATOM     39  C   UNL     1      23.137   3.289  15.067  0.00  0.00    +0.000 A 
ATOM     40  C   UNL     1      21.038   4.347  15.594  0.00  0.00    +0.000 A 
ATOM     41  C   UNL     1      21.777   3.455  14.824  0.00  0.00    +0.000 A 
ENDBRANCH  35  36
ENDBRANCH  33  35
ENDBRANCH  25  32
ENDBRANCH  23  25
ENDBRANCH   2  23
TORSDOF 9
ENDMDL
MODEL 14
REMARK minimizedAffinity -7.11366081
REMARK minimizedRMSD -1
REMARK  Name = 56607520
REMARK  9 active torsions:
REMARK  status: ('A' for Active; 'I' for Inactive)
REMARK    1  A    between atoms: O_4  and  N_12
REMARK    2  A    between atoms: O_4  and  C_23
REMARK    3  A    between atoms: O_6  and  N_13
REMARK    4  A    between atoms: O_6  and  C_25
REMARK    5  A    between atoms: N_10  and  C_22
REMARK    6  A    between atoms: C_19  and  C_23
REMARK    7  A    between atoms: C_20  and  C_22
REMARK    8  A    between atoms: C_33  and  C_34
REMARK    9  A    between atoms: C_34  and  C_35
REMARK                            x       y       z     vdW  Elec       q    Type
REMARK                         _______ _______ _______ _____ _____    ______ ____
ROOT
ATOM      1  O   UNL     1      18.205   4.632  20.198  0.00  0.00    +0.000 OA
ATOM      2  N   UNL     1      18.731   6.183  18.530  0.00  0.00    +0.000 N 
ATOM      3  C   UNL     1      18.138   5.732  19.673  0.00  0.00    +0.000 C 
ATOM      4  H   UNL     1      19.052   6.267  18.319  0.00  0.00    +0.000 HD
ENDROOT
BRANCH   3   6
ATOM      5  N   UNL     1      16.232   6.454  21.005  0.00  0.00    +0.000 NA
ATOM      6  C   UNL     1      17.292   6.789  20.333  0.00  0.00    +0.000 C 
BRANCH   6  10
ATOM      7  S   UNL     1      18.873  10.443  20.464  0.00  0.00    +0.000 S 
ATOM      8  N   UNL     1      17.002   9.054  19.344  0.00  0.00    +0.000 NA
ATOM      9  N   UNL     1      17.101  11.323  18.686  0.00  0.00    +0.000 N 
ATOM     10  C   UNL     1      17.690   8.215  20.199  0.00  0.00    +0.000 A 
ATOM     11  C   UNL     1      18.737   8.788  20.892  0.00  0.00    +0.000 A 
ATOM     12  C   UNL     1      17.537  10.254  19.403  0.00  0.00    +0.000 A 
ATOM     13  H   UNL     1      16.166   6.049  22.702  0.00  0.00    +0.000 HD
ATOM     14  H   UNL     1      16.166   6.049  22.702  0.00  0.00    +0.000 HD
ENDBRANCH   6  10
BRANCH   5  15
ATOM     15  O   UNL     1      15.580   7.575  21.538  0.00  0.00    +0.000 OA
BRANCH  15  19
ATOM     16  O   UNL     1      13.151   9.107  21.839  0.00  0.00    +0.000 OA
ATOM     17  N   UNL     1      13.086   8.043  23.928  0.00  0.00    +0.000 N 
ATOM     18  C   UNL     1      14.945   6.684  23.695  0.00  0.00    +0.000 C 
ATOM     19  C   UNL     1      14.493   7.123  22.306  0.00  0.00    +0.000 C 
ATOM     20  C   UNL     1      13.716   6.911  24.551  0.00  0.00    +0.000 C 
ATOM     21  C   UNL     1      13.505   8.231  22.612  0.00  0.00    +0.000 C 
ATOM     22  H   UNL     1      19.185   4.950  20.355  0.00  0.00    +0.000 HD
ENDBRANCH  15  19
ENDBRANCH   5  15
ENDBRANCH   3   6
BRANCH   2  23
ATOM     23  O   UNL     1      19.453   5.217  17.805  0.00  0.00    +0.000 OA
BRANCH  23  25
ATOM     24  O   UNL     1      18.852   5.874  15.668  0.00  0.00    +0.000 OA
ATOM     25  C   UNL     1      19.673   5.608  16.526  0.00  0.00    +0.000 C 
BRANCH  25  32
ATOM     26  S   UNL     1      24.192   5.825  16.789  0.00  0.00    +0.000 S 
ATOM     27  O   UNL     1      20.497   8.494  17.712  0.00  0.00    +0.000 OA
ATOM     28  N   UNL     1      21.746   6.840  16.587  0.00  0.00    +0.000 N 
ATOM     29  C   UNL     1      23.111   7.146  16.197  0.00  0.00    +0.000 C 
ATOM     30  C   UNL     1      22.988   8.390  17.104  0.00  0.00    +0.000 C 
ATOM     31  C   UNL     1      21.485   8.007  17.213  0.00  0.00    +0.000 C 
ATOM     32  C   UNL     1      21.126   5.666  16.302  0.00  0.00    +0.000 C 
ATOM     33  C   UNL     1      21.821   4.580  15.889  0.00  0.00    +0.000 C 
ATOM     34  C   UNL     1      23.345   4.541  15.805  0.00  0.00    +0.000 C 
BRANCH  33  35
ATOM     35  C   UNL     1      21.198   3.267  15.477  0.00  0.00    +0.000 C 
BRANCH  35  36
ATOM     36  N   UNL     1      20.823   2.431  16.661  0.00  0.00    +0.000 N 
ATOM     37  C   UNL     1      21.714   2.272  17.649  0.00  0.00    +0.000 A 
ATOM     38  C   UNL     1      19.607   1.867  16.695  0.00  0.00    +0.000 A 
ATOM     39  C   UNL     1      21.393   1.501  18.758  0.00  0.00    +0.000 A 
ATOM     40  C   UNL     1      19.231   1.086  17.779  0.00  0.00    +0.000 A 
ATOM     41  C   UNL     1      20.138   0.905  18.819  0.00  0.00    +0.000 A 
ENDBRANCH  35  36
ENDBRANCH  33  35
ENDBRANCH  25  32
ENDBRANCH  23  25
ENDBRANCH   2  23
TORSDOF 9
ENDMDL
MODEL 15
REMARK minimizedAffinity -7.07454729
REMARK minimizedRMSD -1
REMARK  Name = 56607520
REMARK  9 active torsions:
REMARK  status: ('A' for Active; 'I' for Inactive)
REMARK    1  A    between atoms: O_4  and  N_12
REMARK    2  A    between atoms: O_4  and  C_23
REMARK    3  A    between atoms: O_6  and  N_13
REMARK    4  A    between atoms: O_6  and  C_25
REMARK    5  A    between atoms: N_10  and  C_22
REMARK    6  A    between atoms: C_19  and  C_23
REMARK    7  A    between atoms: C_20  and  C_22
REMARK    8  A    between atoms: C_33  and  C_34
REMARK    9  A    between atoms: C_34  and  C_35
REMARK                            x       y       z     vdW  Elec       q    Type
REMARK                         _______ _______ _______ _____ _____    ______ ____
ROOT
ATOM      1  O   UNL     1      17.700   3.641  18.434  0.00  0.00    +0.000 OA
ATOM      2  N   UNL     1      18.144   5.648  19.546  0.00  0.00    +0.000 N 
ATOM      3  C   UNL     1      18.254   4.722  18.549  0.00  0.00    +0.000 C 
ATOM      4  H   UNL     1      17.933   5.901  19.759  0.00  0.00    +0.000 HD
ENDROOT
BRANCH   3   6
ATOM      5  N   UNL     1      19.520   4.342  16.505  0.00  0.00    +0.000 NA
ATOM      6  C   UNL     1      19.208   5.156  17.468  0.00  0.00    +0.000 C 
BRANCH   6  10
ATOM      7  S   UNL     1      21.318   8.499  17.963  0.00  0.00    +0.000 S 
ATOM      8  N   UNL     1      19.092   7.599  17.004  0.00  0.00    +0.000 NA
ATOM      9  N   UNL     1      19.414   9.931  16.779  0.00  0.00    +0.000 N 
ATOM     10  C   UNL     1      19.786   6.525  17.527  0.00  0.00    +0.000 A 
ATOM     11  C   UNL     1      21.011   6.816  18.089  0.00  0.00    +0.000 A 
ATOM     12  C   UNL     1      19.804   8.691  17.178  0.00  0.00    +0.000 A 
ATOM     13  H   UNL     1      18.416   4.057  19.833  0.00  0.00    +0.000 HD
ATOM     14  H   UNL     1      18.416   4.057  19.833  0.00  0.00    +0.000 HD
ENDBRANCH   6  10
BRANCH   5  15
ATOM     15  O   UNL     1      20.421   4.926  15.604  0.00  0.00    +0.000 OA
BRANCH  15  19
ATOM     16  O   UNL     1      20.143   3.222  13.290  0.00  0.00    +0.000 OA
ATOM     17  N   UNL     1      21.348   1.713  14.621  0.00  0.00    +0.000 N 
ATOM     18  C   UNL     1      21.727   3.076  16.453  0.00  0.00    +0.000 C 
ATOM     19  C   UNL     1      21.381   3.960  15.259  0.00  0.00    +0.000 C 
ATOM     20  C   UNL     1      22.152   1.771  15.811  0.00  0.00    +0.000 C 
ATOM     21  C   UNL     1      20.855   2.962  14.247  0.00  0.00    +0.000 C 
ATOM     22  H   UNL     1      21.068   8.198  18.792  0.00  0.00    +0.000 HD
ENDBRANCH  15  19
ENDBRANCH   5  15
ENDBRANCH   3   6
BRANCH   2  23
ATOM     23  O   UNL     1      17.349   5.263  20.640  0.00  0.00    +0.000 OA
BRANCH  23  25
ATOM     24  O   UNL     1      18.906   5.517  22.336  0.00  0.00    +0.000 OA
ATOM     25  C   UNL     1      17.832   5.748  21.811  0.00  0.00    +0.000 C 
BRANCH  25  32
ATOM     26  S   UNL     1      14.394   8.559  22.713  0.00  0.00    +0.000 S 
ATOM     27  O   UNL     1      18.400   8.570  20.350  0.00  0.00    +0.000 OA
ATOM     28  N   UNL     1      16.898   7.958  22.062  0.00  0.00    +0.000 N 
ATOM     29  C   UNL     1      16.145   9.004  22.732  0.00  0.00    +0.000 C 
ATOM     30  C   UNL     1      16.628   9.940  21.603  0.00  0.00    +0.000 C 
ATOM     31  C   UNL     1      17.536   8.752  21.176  0.00  0.00    +0.000 C 
ATOM     32  C   UNL     1      16.821   6.643  22.394  0.00  0.00    +0.000 C 
ATOM     33  C   UNL     1      15.824   6.168  23.177  0.00  0.00    +0.000 C 
ATOM     34  C   UNL     1      14.660   7.025  23.666  0.00  0.00    +0.000 C 
BRANCH  33  35
ATOM     35  C   UNL     1      15.716   4.740  23.656  0.00  0.00    +0.000 C 
BRANCH  35  36
ATOM     36  N   UNL     1      14.317   4.217  23.541  0.00  0.00    +0.000 N 
ATOM     37  C   UNL     1      13.816   3.972  22.322  0.00  0.00    +0.000 A 
ATOM     38  C   UNL     1      13.611   4.011  24.661  0.00  0.00    +0.000 A 
ATOM     39  C   UNL     1      12.523   3.487  22.186  0.00  0.00    +0.000 A 
ATOM     40  C   UNL     1      12.311   3.527  24.586  0.00  0.00    +0.000 A 
ATOM     41  C   UNL     1      11.767   3.264  23.333  0.00  0.00    +0.000 A 
ENDBRANCH  35  36
ENDBRANCH  33  35
ENDBRANCH  25  32
ENDBRANCH  23  25
ENDBRANCH   2  23
TORSDOF 9
ENDMDL
MODEL 16
REMARK minimizedAffinity -7.0723424
REMARK minimizedRMSD -1
REMARK  Name = 56607520
REMARK  9 active torsions:
REMARK  status: ('A' for Active; 'I' for Inactive)
REMARK    1  A    between atoms: O_4  and  N_12
REMARK    2  A    between atoms: O_4  and  C_23
REMARK    3  A    between atoms: O_6  and  N_13
REMARK    4  A    between atoms: O_6  and  C_25
REMARK    5  A    between atoms: N_10  and  C_22
REMARK    6  A    between atoms: C_19  and  C_23
REMARK    7  A    between atoms: C_20  and  C_22
REMARK    8  A    between atoms: C_33  and  C_34
REMARK    9  A    between atoms: C_34  and  C_35
REMARK                            x       y       z     vdW  Elec       q    Type
REMARK                         _______ _______ _______ _____ _____    ______ ____
ROOT
ATOM      1  O   UNL     1      18.652   3.539  21.089  0.00  0.00    +0.000 OA
ATOM      2  N   UNL     1      18.203   5.601  20.084  0.00  0.00    +0.000 N 
ATOM      3  C   UNL     1      17.977   4.540  20.913  0.00  0.00    +0.000 C 
ATOM      4  H   UNL     1      18.420   5.907  19.970  0.00  0.00    +0.000 HD
ENDROOT
BRANCH   3   6
ATOM      5  N   UNL     1      16.394   5.818  22.250  0.00  0.00    +0.000 NA
ATOM      6  C   UNL     1      16.696   4.685  21.691  0.00  0.00    +0.000 C 
BRANCH   6  10
ATOM      7  S   UNL     1      14.017   1.756  21.357  0.00  0.00    +0.000 S 
ATOM      8  N   UNL     1      15.844   2.698  22.925  0.00  0.00    +0.000 NA
ATOM      9  N   UNL     1      14.740   0.764  23.717  0.00  0.00    +0.000 N 
ATOM     10  C   UNL     1      15.791   3.511  21.809  0.00  0.00    +0.000 A 
ATOM     11  C   UNL     1      14.863   3.159  20.851  0.00  0.00    +0.000 A 
ATOM     12  C   UNL     1      14.953   1.740  22.796  0.00  0.00    +0.000 A 
ATOM     13  H   UNL     1      15.541   7.147  21.865  0.00  0.00    +0.000 HD
ATOM     14  H   UNL     1      15.541   7.147  21.865  0.00  0.00    +0.000 HD
ENDBRANCH   6  10
BRANCH   5  15
ATOM     15  O   UNL     1      15.169   5.752  22.929  0.00  0.00    +0.000 OA
BRANCH  15  19
ATOM     16  O   UNL     1      14.934   8.472  23.867  0.00  0.00    +0.000 OA
ATOM     17  N   UNL     1      12.728   8.232  23.111  0.00  0.00    +0.000 N 
ATOM     18  C   UNL     1      12.886   6.105  22.213  0.00  0.00    +0.000 C 
ATOM     19  C   UNL     1      14.294   6.680  22.341  0.00  0.00    +0.000 C 
ATOM     20  C   UNL     1      12.001   7.334  22.256  0.00  0.00    +0.000 C 
ATOM     21  C   UNL     1      14.077   7.900  23.213  0.00  0.00    +0.000 C 
ATOM     22  H   UNL     1      16.203   1.645  21.098  0.00  0.00    +0.000 HD
ENDBRANCH  15  19
ENDBRANCH   5  15
ENDBRANCH   3   6
BRANCH   2  23
ATOM     23  O   UNL     1      19.330   5.483  19.250  0.00  0.00    +0.000 OA
BRANCH  23  25
ATOM     24  O   UNL     1      18.684   6.973  17.599  0.00  0.00    +0.000 OA
ATOM     25  C   UNL     1      19.467   6.557  18.433  0.00  0.00    +0.000 C 
BRANCH  25  32
ATOM     26  S   UNL     1      23.301   8.972  18.476  0.00  0.00    +0.000 S 
ATOM     27  O   UNL     1      21.278   5.657  15.918  0.00  0.00    +0.000 OA
ATOM     28  N   UNL     1      21.792   6.872  17.873  0.00  0.00    +0.000 N 
ATOM     29  C   UNL     1      23.181   7.201  18.140  0.00  0.00    +0.000 C 
ATOM     30  C   UNL     1      23.465   6.757  16.689  0.00  0.00    +0.000 C 
ATOM     31  C   UNL     1      21.990   6.263  16.684  0.00  0.00    +0.000 C 
ATOM     32  C   UNL     1      20.768   7.185  18.708  0.00  0.00    +0.000 C 
ATOM     33  C   UNL     1      20.923   8.081  19.711  0.00  0.00    +0.000 C 
ATOM     34  C   UNL     1      22.202   8.883  19.931  0.00  0.00    +0.000 C 
BRANCH  33  35
ATOM     35  C   UNL     1      19.859   8.421  20.729  0.00  0.00    +0.000 C 
BRANCH  35  36
ATOM     36  N   UNL     1      18.766   9.256  20.137  0.00  0.00    +0.000 N 
ATOM     37  C   UNL     1      17.494   8.960  20.432  0.00  0.00    +0.000 A 
ATOM     38  C   UNL     1      19.096  10.273  19.329  0.00  0.00    +0.000 A 
ATOM     39  C   UNL     1      16.461   9.716  19.897  0.00  0.00    +0.000 A 
ATOM     40  C   UNL     1      18.105  11.065  18.765  0.00  0.00    +0.000 A 
ATOM     41  C   UNL     1      16.774  10.779  19.056  0.00  0.00    +0.000 A 
ENDBRANCH  35  36
ENDBRANCH  33  35
ENDBRANCH  25  32
ENDBRANCH  23  25
ENDBRANCH   2  23
TORSDOF 9
ENDMDL
MODEL 17
REMARK minimizedAffinity -7.05383778
REMARK minimizedRMSD -1
REMARK  Name = 56607520
REMARK  9 active torsions:
REMARK  status: ('A' for Active; 'I' for Inactive)
REMARK    1  A    between atoms: O_4  and  N_12
REMARK    2  A    between atoms: O_4  and  C_23
REMARK    3  A    between atoms: O_6  and  N_13
REMARK    4  A    between atoms: O_6  and  C_25
REMARK    5  A    between atoms: N_10  and  C_22
REMARK    6  A    between atoms: C_19  and  C_23
REMARK    7  A    between atoms: C_20  and  C_22
REMARK    8  A    between atoms: C_33  and  C_34
REMARK    9  A    between atoms: C_34  and  C_35
REMARK                            x       y       z     vdW  Elec       q    Type
REMARK                         _______ _______ _______ _____ _____    ______ ____
ROOT
ATOM      1  O   UNL     1      23.218   9.341  19.827  0.00  0.00    +0.000 OA
ATOM      2  N   UNL     1      22.196   8.648  17.842  0.00  0.00    +0.000 N 
ATOM      3  C   UNL     1      22.269   8.938  19.174  0.00  0.00    +0.000 C 
ATOM      4  H   UNL     1      22.219   8.755  17.465  0.00  0.00    +0.000 HD
ENDROOT
BRANCH   3   6
ATOM      5  N   UNL     1      20.329   9.701  20.431  0.00  0.00    +0.000 NA
ATOM      6  C   UNL     1      20.961   8.707  19.882  0.00  0.00    +0.000 C 
BRANCH   6  10
ATOM      7  S   UNL     1      19.914   4.937  20.634  0.00  0.00    +0.000 S 
ATOM      8  N   UNL     1      19.499   6.896  18.999  0.00  0.00    +0.000 NA
ATOM      9  N   UNL     1      18.288   4.920  18.529  0.00  0.00    +0.000 N 
ATOM     10  C   UNL     1      20.411   7.327  19.943  0.00  0.00    +0.000 A 
ATOM     11  C   UNL     1      20.758   6.405  20.909  0.00  0.00    +0.000 A 
ATOM     12  C   UNL     1      19.167   5.652  19.263  0.00  0.00    +0.000 A 
ATOM     13  H   UNL     1      23.590   8.951  19.209  0.00  0.00    +0.000 HD
ATOM     14  H   UNL     1      23.590   8.951  19.209  0.00  0.00    +0.000 HD
ENDBRANCH   6  10
BRANCH   5  15
ATOM     15  O   UNL     1      19.138   9.284  21.042  0.00  0.00    +0.000 OA
BRANCH  15  19
ATOM     16  O   UNL     1      16.341   8.741  21.513  0.00  0.00    +0.000 OA
ATOM     17  N   UNL     1      16.065  10.043  19.582  0.00  0.00    +0.000 N 
ATOM     18  C   UNL     1      18.276  10.631  19.228  0.00  0.00    +0.000 C 
ATOM     19  C   UNL     1      18.123  10.185  20.679  0.00  0.00    +0.000 C 
ATOM     20  C   UNL     1      16.857  10.964  18.812  0.00  0.00    +0.000 C 
ATOM     21  C   UNL     1      16.751   9.540  20.686  0.00  0.00    +0.000 C 
ATOM     22  H   UNL     1      23.635  10.312  21.048  0.00  0.00    +0.000 HD
ENDBRANCH  15  19
ENDBRANCH   5  15
ENDBRANCH   3   6
BRANCH   2  23
ATOM     23  O   UNL     1      23.411   8.742  17.139  0.00  0.00    +0.000 OA
BRANCH  23  25
ATOM     24  O   UNL     1      23.136   8.588  14.844  0.00  0.00    +0.000 OA
ATOM     25  C   UNL     1      23.350   8.107  15.942  0.00  0.00    +0.000 C 
BRANCH  25  32
ATOM     26  S   UNL     1      23.785   3.601  15.732  0.00  0.00    +0.000 S 
ATOM     27  O   UNL     1      20.411   6.802  15.667  0.00  0.00    +0.000 OA
ATOM     28  N   UNL     1      22.500   5.869  16.240  0.00  0.00    +0.000 N 
ATOM     29  C   UNL     1      22.543   4.492  16.696  0.00  0.00    +0.000 C 
ATOM     30  C   UNL     1      21.084   4.384  16.203  0.00  0.00    +0.000 C 
ATOM     31  C   UNL     1      21.174   5.922  15.992  0.00  0.00    +0.000 C 
ATOM     32  C   UNL     1      23.592   6.674  16.165  0.00  0.00    +0.000 C 
ATOM     33  C   UNL     1      24.847   6.170  16.231  0.00  0.00    +0.000 C 
ATOM     34  C   UNL     1      25.151   4.675  16.291  0.00  0.00    +0.000 C 
BRANCH  33  35
ATOM     35  C   UNL     1      26.107   7.004  16.236  0.00  0.00    +0.000 C 
BRANCH  35  36
ATOM     36  N   UNL     1      26.361   7.625  17.575  0.00  0.00    +0.000 N 
ATOM     37  C   UNL     1      26.156   6.892  18.677  0.00  0.00    +0.000 A 
ATOM     38  C   UNL     1      26.783   8.896  17.627  0.00  0.00    +0.000 A 
ATOM     39  C   UNL     1      26.383   7.442  19.931  0.00  0.00    +0.000 A 
ATOM     40  C   UNL     1      27.027   9.499  18.854  0.00  0.00    +0.000 A 
ATOM     41  C   UNL     1      26.823   8.760  20.015  0.00  0.00    +0.000 A 
ENDBRANCH  35  36
ENDBRANCH  33  35
ENDBRANCH  25  32
ENDBRANCH  23  25
ENDBRANCH   2  23
TORSDOF 9
ENDMDL
MODEL 18
REMARK minimizedAffinity -7.00571156
REMARK minimizedRMSD -1
REMARK  Name = 56607520
REMARK  9 active torsions:
REMARK  status: ('A' for Active; 'I' for Inactive)
REMARK    1  A    between atoms: O_4  and  N_12
REMARK    2  A    between atoms: O_4  and  C_23
REMARK    3  A    between atoms: O_6  and  N_13
REMARK    4  A    between atoms: O_6  and  C_25
REMARK    5  A    between atoms: N_10  and  C_22
REMARK    6  A    between atoms: C_19  and  C_23
REMARK    7  A    between atoms: C_20  and  C_22
REMARK    8  A    between atoms: C_33  and  C_34
REMARK    9  A    between atoms: C_34  and  C_35
REMARK                            x       y       z     vdW  Elec       q    Type
REMARK                         _______ _______ _______ _____ _____    ______ ____
ROOT
ATOM      1  O   UNL     1      19.009   7.828  17.217  0.00  0.00    +0.000 OA
ATOM      2  N   UNL     1      18.854   5.838  18.433  0.00  0.00    +0.000 N 
ATOM      3  C   UNL     1      19.298   6.663  17.440  0.00  0.00    +0.000 C 
ATOM      4  H   UNL     1      18.817   5.746  18.812  0.00  0.00    +0.000 HD
ENDROOT
BRANCH   3   6
ATOM      5  N   UNL     1      19.880   5.042  15.720  0.00  0.00    +0.000 NA
ATOM      6  C   UNL     1      20.279   5.981  16.525  0.00  0.00    +0.000 C 
BRANCH   6  10
ATOM      7  S   UNL     1      24.178   6.553  17.106  0.00  0.00    +0.000 S 
ATOM      8  N   UNL     1      22.143   7.459  15.793  0.00  0.00    +0.000 NA
ATOM      9  N   UNL     1      24.180   8.594  15.399  0.00  0.00    +0.000 N 
ATOM     10  C   UNL     1      21.706   6.398  16.562  0.00  0.00    +0.000 A 
ATOM     11  C   UNL     1      22.664   5.782  17.339  0.00  0.00    +0.000 A 
ATOM     12  C   UNL     1      23.430   7.632  15.999  0.00  0.00    +0.000 A 
ATOM     13  H   UNL     1      18.805   6.453  18.767  0.00  0.00    +0.000 HD
ATOM     14  H   UNL     1      18.805   6.453  18.767  0.00  0.00    +0.000 HD
ENDBRANCH   6  10
BRANCH   5  15
ATOM     15  O   UNL     1      20.938   4.530  14.955  0.00  0.00    +0.000 OA
BRANCH  15  19
ATOM     16  O   UNL     1      21.922   2.410  16.651  0.00  0.00    +0.000 OA
ATOM     17  N   UNL     1      21.924   1.202  14.641  0.00  0.00    +0.000 N 
ATOM     18  C   UNL     1      21.008   2.812  13.254  0.00  0.00    +0.000 C 
ATOM     19  C   UNL     1      20.674   3.175  14.698  0.00  0.00    +0.000 C 
ATOM     20  C   UNL     1      21.346   1.338  13.332  0.00  0.00    +0.000 C 
ATOM     21  C   UNL     1      21.579   2.252  15.490  0.00  0.00    +0.000 C 
ATOM     22  H   UNL     1      18.840   8.031  12.804  0.00  0.00    +0.000 HD
ENDBRANCH  15  19
ENDBRANCH   5  15
ENDBRANCH   3   6
BRANCH   2  23
ATOM     23  O   UNL     1      17.856   6.377  19.263  0.00  0.00    +0.000 OA
BRANCH  23  25
ATOM     24  O   UNL     1      18.941   5.468  21.096  0.00  0.00    +0.000 OA
ATOM     25  C   UNL     1      17.960   5.924  20.537  0.00  0.00    +0.000 C 
BRANCH  25  32
ATOM     26  S   UNL     1      14.212   5.615  23.065  0.00  0.00    +0.000 S 
ATOM     27  O   UNL     1      16.485   3.135  19.855  0.00  0.00    +0.000 OA
ATOM     28  N   UNL     1      15.740   5.080  20.960  0.00  0.00    +0.000 N 
ATOM     29  C   UNL     1      14.336   5.181  21.316  0.00  0.00    +0.000 C 
ATOM     30  C   UNL     1      14.240   3.679  20.973  0.00  0.00    +0.000 C 
ATOM     31  C   UNL     1      15.690   3.838  20.434  0.00  0.00    +0.000 C 
ATOM     32  C   UNL     1      16.649   6.064  21.188  0.00  0.00    +0.000 C 
ATOM     33  C   UNL     1      16.380   7.095  22.023  0.00  0.00    +0.000 C 
ATOM     34  C   UNL     1      15.102   7.195  22.851  0.00  0.00    +0.000 C 
BRANCH  33  35
ATOM     35  C   UNL     1      17.304   8.266  22.265  0.00  0.00    +0.000 C 
BRANCH  35  36
ATOM     36  N   UNL     1      17.405   9.155  21.065  0.00  0.00    +0.000 N 
ATOM     37  C   UNL     1      16.282   9.503  20.421  0.00  0.00    +0.000 A 
ATOM     38  C   UNL     1      18.615   9.575  20.672  0.00  0.00    +0.000 A 
ATOM     39  C   UNL     1      16.346  10.326  19.306  0.00  0.00    +0.000 A 
ATOM     40  C   UNL     1      18.741  10.400  19.562  0.00  0.00    +0.000 A 
ATOM     41  C   UNL     1      17.590  10.777  18.876  0.00  0.00    +0.000 A 
ENDBRANCH  35  36
ENDBRANCH  33  35
ENDBRANCH  25  32
ENDBRANCH  23  25
ENDBRANCH   2  23
TORSDOF 9
ENDMDL
MODEL 19
REMARK minimizedAffinity -6.98657465
REMARK minimizedRMSD -1
REMARK  Name = 56607520
REMARK  9 active torsions:
REMARK  status: ('A' for Active; 'I' for Inactive)
REMARK    1  A    between atoms: O_4  and  N_12
REMARK    2  A    between atoms: O_4  and  C_23
REMARK    3  A    between atoms: O_6  and  N_13
REMARK    4  A    between atoms: O_6  and  C_25
REMARK    5  A    between atoms: N_10  and  C_22
REMARK    6  A    between atoms: C_19  and  C_23
REMARK    7  A    between atoms: C_20  and  C_22
REMARK    8  A    between atoms: C_33  and  C_34
REMARK    9  A    between atoms: C_34  and  C_35
REMARK                            x       y       z     vdW  Elec       q    Type
REMARK                         _______ _______ _______ _____ _____    ______ ____
ROOT
ATOM      1  O   UNL     1      20.141   7.783  20.164  0.00  0.00    +0.000 OA
ATOM      2  N   UNL     1      19.309   8.016  17.992  0.00  0.00    +0.000 N 
ATOM      3  C   UNL     1      19.314   7.588  19.288  0.00  0.00    +0.000 C 
ATOM      4  H   UNL     1      19.306   8.303  17.724  0.00  0.00    +0.000 HD
ENDROOT
BRANCH   3   6
ATOM      5  N   UNL     1      17.917   5.607  19.059  0.00  0.00    +0.000 NA
ATOM      6  C   UNL     1      18.099   6.764  19.622  0.00  0.00    +0.000 C 
BRANCH   6  10
ATOM      7  S   UNL     1      15.354   8.720  21.745  0.00  0.00    +0.000 S 
ATOM      8  N   UNL     1      16.908   6.655  21.805  0.00  0.00    +0.000 NA
ATOM      9  N   UNL     1      15.561   6.955  23.725  0.00  0.00    +0.000 N 
ATOM     10  C   UNL     1      17.115   7.298  20.601  0.00  0.00    +0.000 A 
ATOM     11  C   UNL     1      16.363   8.435  20.388  0.00  0.00    +0.000 A 
ATOM     12  C   UNL     1      16.001   7.316  22.490  0.00  0.00    +0.000 A 
ATOM     13  H   UNL     1      20.367   8.226  19.241  0.00  0.00    +0.000 HD
ATOM     14  H   UNL     1      20.367   8.226  19.241  0.00  0.00    +0.000 HD
ENDBRANCH   6  10
BRANCH   5  15
ATOM     15  O   UNL     1      16.732   4.998  19.495  0.00  0.00    +0.000 OA
BRANCH  15  19
ATOM     16  O   UNL     1      16.991   3.151  21.699  0.00  0.00    +0.000 OA
ATOM     17  N   UNL     1      18.241   1.924  20.141  0.00  0.00    +0.000 N 
ATOM     18  C   UNL     1      17.955   3.291  18.295  0.00  0.00    +0.000 C 
ATOM     19  C   UNL     1      16.859   3.612  19.307  0.00  0.00    +0.000 C 
ATOM     20  C   UNL     1      18.427   1.914  18.715  0.00  0.00    +0.000 C 
ATOM     21  C   UNL     1      17.341   2.903  20.557  0.00  0.00    +0.000 C 
ATOM     22  H   UNL     1      15.567   7.970  16.164  0.00  0.00    +0.000 HD
ENDBRANCH  15  19
ENDBRANCH   5  15
ENDBRANCH   3   6
BRANCH   2  23
ATOM     23  O   UNL     1      20.465   8.704  17.581  0.00  0.00    +0.000 OA
BRANCH  23  25
ATOM     24  O   UNL     1      20.511   8.765  15.267  0.00  0.00    +0.000 OA
ATOM     25  C   UNL     1      20.867   8.323  16.344  0.00  0.00    +0.000 C 
BRANCH  25  32
ATOM     26  S   UNL     1      23.709   4.825  15.867  0.00  0.00    +0.000 S 
ATOM     27  O   UNL     1      19.137   5.668  15.728  0.00  0.00    +0.000 OA
ATOM     28  N   UNL     1      21.374   5.965  16.415  0.00  0.00    +0.000 N 
ATOM     29  C   UNL     1      22.149   4.793  16.779  0.00  0.00    +0.000 C 
ATOM     30  C   UNL     1      21.007   3.962  16.156  0.00  0.00    +0.000 C 
ATOM     31  C   UNL     1      20.246   5.315  16.058  0.00  0.00    +0.000 C 
ATOM     32  C   UNL     1      21.847   7.236  16.489  0.00  0.00    +0.000 C 
ATOM     33  C   UNL     1      23.170   7.491  16.629  0.00  0.00    +0.000 C 
ATOM     34  C   UNL     1      24.241   6.404  16.614  0.00  0.00    +0.000 C 
BRANCH  33  35
ATOM     35  C   UNL     1      23.764   8.869  16.799  0.00  0.00    +0.000 C 
BRANCH  35  36
ATOM     36  N   UNL     1      24.261   9.095  18.194  0.00  0.00    +0.000 N 
ATOM     37  C   UNL     1      25.565   9.335  18.385  0.00  0.00    +0.000 A 
ATOM     38  C   UNL     1      23.384   9.050  19.206  0.00  0.00    +0.000 A 
ATOM     39  C   UNL     1      26.053   9.547  19.667  0.00  0.00    +0.000 A 
ATOM     40  C   UNL     1      23.815   9.255  20.510  0.00  0.00    +0.000 A 
ATOM     41  C   UNL     1      25.165   9.507  20.737  0.00  0.00    +0.000 A 
ENDBRANCH  35  36
ENDBRANCH  33  35
ENDBRANCH  25  32
ENDBRANCH  23  25
ENDBRANCH   2  23
TORSDOF 9
ENDMDL
MODEL 20
REMARK minimizedAffinity -6.94552517
REMARK minimizedRMSD -1
REMARK  Name = 56607520
REMARK  9 active torsions:
REMARK  status: ('A' for Active; 'I' for Inactive)
REMARK    1  A    between atoms: O_4  and  N_12
REMARK    2  A    between atoms: O_4  and  C_23
REMARK    3  A    between atoms: O_6  and  N_13
REMARK    4  A    between atoms: O_6  and  C_25
REMARK    5  A    between atoms: N_10  and  C_22
REMARK    6  A    between atoms: C_19  and  C_23
REMARK    7  A    between atoms: C_20  and  C_22
REMARK    8  A    between atoms: C_33  and  C_34
REMARK    9  A    between atoms: C_34  and  C_35
REMARK                            x       y       z     vdW  Elec       q    Type
REMARK                         _______ _______ _______ _____ _____    ______ ____
ROOT
ATOM      1  O   UNL     1      17.377   8.330  19.787  0.00  0.00    +0.000 OA
ATOM      2  N   UNL     1      18.269   6.275  19.120  0.00  0.00    +0.000 N 
ATOM      3  C   UNL     1      17.481   7.116  19.852  0.00  0.00    +0.000 C 
ATOM      4  H   UNL     1      18.377   6.117  18.778  0.00  0.00    +0.000 HD
ENDROOT
BRANCH   3   6
ATOM      5  N   UNL     1      16.136   7.015  21.879  0.00  0.00    +0.000 NA
ATOM      6  C   UNL     1      16.649   6.380  20.868  0.00  0.00    +0.000 C 
BRANCH   6  10
ATOM      7  S   UNL     1      15.465   2.669  20.030  0.00  0.00    +0.000 S 
ATOM      8  N   UNL     1      17.314   4.010  21.242  0.00  0.00    +0.000 NA
ATOM      9  N   UNL     1      17.547   1.659  21.343  0.00  0.00    +0.000 N 
ATOM     10  C   UNL     1      16.429   4.919  20.695  0.00  0.00    +0.000 A 
ATOM     11  C   UNL     1      15.365   4.381  20.002  0.00  0.00    +0.000 A 
ATOM     12  C   UNL     1      16.906   2.794  20.955  0.00  0.00    +0.000 A 
ATOM     13  H   UNL     1      14.895   7.700  22.483  0.00  0.00    +0.000 HD
ATOM     14  H   UNL     1      14.895   7.700  22.483  0.00  0.00    +0.000 HD
ENDBRANCH   6  10
BRANCH   5  15
ATOM     15  O   UNL     1      15.401   6.158  22.711  0.00  0.00    +0.000 OA
BRANCH  15  19
ATOM     16  O   UNL     1      12.738   5.216  22.115  0.00  0.00    +0.000 OA
ATOM     17  N   UNL     1      12.238   7.506  22.142  0.00  0.00    +0.000 N 
ATOM     18  C   UNL     1      14.316   8.319  22.756  0.00  0.00    +0.000 C 
ATOM     19  C   UNL     1      14.247   6.842  23.130  0.00  0.00    +0.000 C 
ATOM     20  C   UNL     1      12.860   8.713  22.615  0.00  0.00    +0.000 C 
ATOM     21  C   UNL     1      13.004   6.372  22.402  0.00  0.00    +0.000 C 
ATOM     22  H   UNL     1      19.661   7.109  24.205  0.00  0.00    +0.000 HD
ENDBRANCH  15  19
ENDBRANCH   5  15
ENDBRANCH   3   6
BRANCH   2  23
ATOM     23  O   UNL     1      19.150   6.905  18.223  0.00  0.00    +0.000 OA
BRANCH  23  25
ATOM     24  O   UNL     1      18.570   6.143  16.115  0.00  0.00    +0.000 OA
ATOM     25  C   UNL     1      19.307   6.188  17.083  0.00  0.00    +0.000 C 
BRANCH  25  32
ATOM     26  S   UNL     1      22.805   3.337  16.669  0.00  0.00    +0.000 S 
ATOM     27  O   UNL     1      18.317   3.221  17.883  0.00  0.00    +0.000 OA
ATOM     28  N   UNL     1      20.472   4.150  17.642  0.00  0.00    +0.000 N 
ATOM     29  C   UNL     1      21.619   3.352  18.033  0.00  0.00    +0.000 C 
ATOM     30  C   UNL     1      20.643   2.158  18.105  0.00  0.00    +0.000 C 
ATOM     31  C   UNL     1      19.526   3.221  17.896  0.00  0.00    +0.000 C 
ATOM     32  C   UNL     1      20.561   5.426  17.183  0.00  0.00    +0.000 C 
ATOM     33  C   UNL     1      21.742   5.951  16.780  0.00  0.00    +0.000 C 
ATOM     34  C   UNL     1      23.037   5.147  16.706  0.00  0.00    +0.000 C 
BRANCH  33  35
ATOM     35  C   UNL     1      21.937   7.382  16.335  0.00  0.00    +0.000 C 
BRANCH  35  36
ATOM     36  N   UNL     1      22.813   8.146  17.279  0.00  0.00    +0.000 N 
ATOM     37  C   UNL     1      22.398   8.334  18.539  0.00  0.00    +0.000 A 
ATOM     38  C   UNL     1      23.985   8.618  16.833  0.00  0.00    +0.000 A 
ATOM     39  C   UNL     1      23.189   9.039  19.435  0.00  0.00    +0.000 A 
ATOM     40  C   UNL     1      24.819   9.330  17.684  0.00  0.00    +0.000 A 
ATOM     41  C   UNL     1      24.412   9.540  18.998  0.00  0.00    +0.000 A 
ENDBRANCH  35  36
ENDBRANCH  33  35
ENDBRANCH  25  32
ENDBRANCH  23  25
ENDBRANCH   2  23
TORSDOF 9
ENDMDL
