MODEL 1
REMARK minimizedAffinity -8.17334747
REMARK minimizedRMSD -1
REMARK  Name = 44305758
REMARK  17 active torsions:
REMARK  status: ('A' for Active; 'I' for Inactive)
REMARK    1  A    between atoms: O_4  and  C_27
REMARK    2  A    between atoms: O_7  and  N_15
REMARK    3  A    between atoms: O_7  and  C_39
REMARK    4  A    between atoms: O_8  and  N_17
REMARK    5  A    between atoms: O_10  and  N_19
REMARK    6  A    between atoms: N_13  and  CA_21
REMARK    7  A    between atoms: N_14  and  C_26
REMARK    8  A    between atoms: N_17  and  C_36
REMARK    9  A    between atoms: N_19  and  C_41
REMARK   10  A    between atoms: CA_23  and  C_27
REMARK   11  A    between atoms: C_24  and  C_26
REMARK   12  A    between atoms: C_28  and  C_31
REMARK   13  A    between atoms: C_31  and  C_35
REMARK   14  A    between atoms: C_34  and  C_36
REMARK   15  A    between atoms: C_39  and  C_41
REMARK   16  A    between atoms: C_40  and  C_42
REMARK   17  A    between atoms: C_43  and  C_44
REMARK                            x       y       z     vdW  Elec       q    Type
REMARK                         _______ _______ _______ _____ _____    ______ ____
ROOT
ATOM      1  S   UNL     1      16.004   4.986  22.955  0.00  0.00    +0.000 S 
ATOM      2  O   UNL     1      12.713   8.217  23.543  0.00  0.00    +0.000 OA
ATOM      3  N   UNL     1      14.905   7.350  23.456  0.00  0.00    +0.000 N 
ATOM      4  C   UNL     1      15.180   6.091  24.124  0.00  0.00    +0.000 C 
ATOM      5  CA  UNL     1      13.650   5.936  24.254  0.00  0.00    +0.000 C 
ATOM      6  C   UNL     1      13.582   7.396  23.726  0.00  0.00    +0.000 C 
ATOM      7  CA  UNL     1      15.847   8.087  22.815  0.00  0.00    +0.000 C 
ATOM      8  C   UNL     1      17.057   7.566  22.497  0.00  0.00    +0.000 C 
ATOM      9  C   UNL     1      17.429   6.103  22.731  0.00  0.00    +0.000 C 
ENDROOT
BRANCH   5  11
ATOM     10  O   UNL     1      12.287   3.443  25.041  0.00  0.00    +0.000 OA
ATOM     11  N   UNL     1      12.967   4.970  23.392  0.00  0.00    +0.000 N 
ATOM     12  C   UNL     1      12.360   3.827  23.885  0.00  0.00    +0.000 C 
ATOM     13  H   UNL     1      14.639   7.471  22.658  0.00  0.00    +0.000 HD
BRANCH  12  15
ATOM     14  N   UNL     1      10.447   3.093  22.570  0.00  0.00    +0.000 NA
ATOM     15  C   UNL     1      11.719   2.991  22.808  0.00  0.00    +0.000 C 
BRANCH  15  19
ATOM     16  S   UNL     1      13.471  -0.026  20.883  0.00  0.00    +0.000 S 
ATOM     17  N   UNL     1      13.761   2.472  21.482  0.00  0.00    +0.000 NA
ATOM     18  N   UNL     1      15.512   1.537  20.198  0.00  0.00    +0.000 N 
ATOM     19  C   UNL     1      12.568   2.046  22.032  0.00  0.00    +0.000 A 
ATOM     20  C   UNL     1      12.241   0.724  21.814  0.00  0.00    +0.000 A 
ATOM     21  C   UNL     1      14.322   1.464  20.854  0.00  0.00    +0.000 A 
ATOM     22  H   UNL     1       6.676   3.027  21.024  0.00  0.00    +0.000 HD
ATOM     23  H   UNL     1       6.676   3.027  21.024  0.00  0.00    +0.000 HD
ENDBRANCH  15  19
BRANCH  14  24
ATOM     24  O   UNL     1       9.834   4.030  23.414  0.00  0.00    +0.000 OA
BRANCH  24  25
ATOM     25  C   UNL     1       8.773   4.640  22.697  0.00  0.00    +0.000 C 
BRANCH  25  26
ATOM     26  C   UNL     1       7.526   3.783  22.814  0.00  0.00    +0.000 C 
BRANCH  26  28
ATOM     27  O   UNL     1       7.342   2.899  25.526  0.00  0.00    +0.000 OA
ATOM     28  N   UNL     1       6.636   4.279  23.829  0.00  0.00    +0.000 N 
ATOM     29  C   UNL     1       6.609   3.799  25.114  0.00  0.00    +0.000 C 
ATOM     30  C   UNL     1       5.611   4.453  26.038  0.00  0.00    +0.000 C 
BRANCH  28  31
ATOM     31  O   UNL     1       5.798   5.306  23.367  0.00  0.00    +0.000 OA
ATOM     32  H   UNL     1       1.593   4.698  24.335  0.00  0.00    +0.000 HD
ENDBRANCH  28  31
ENDBRANCH  26  28
ENDBRANCH  25  26
ENDBRANCH  24  25
ENDBRANCH  14  24
ENDBRANCH  12  15
ENDBRANCH   5  11
BRANCH   7  34
ATOM     33  OXT UNL     1      15.462  10.404  23.181  0.00  0.00    +0.000 OA
ATOM     34  C   UNL     1      15.474   9.454  22.424  0.00  0.00    +0.000 C 
BRANCH  34  35
ATOM     35  O   UNL     1      15.155   9.473  21.115  0.00  0.00    +0.000 OA
ATOM     36  H   UNL     1      15.881   6.044  23.459  0.00  0.00    +0.000 HD
ENDBRANCH  34  35
ENDBRANCH   7  34
BRANCH   8  37
ATOM     37  C   UNL     1      18.184   8.343  21.859  0.00  0.00    +0.000 C 
BRANCH  37  38
ATOM     38  N   UNL     1      18.792   7.601  20.708  0.00  0.00    +0.000 N 
ATOM     39  C   UNL     1      20.067   7.201  20.799  0.00  0.00    +0.000 A 
ATOM     40  C   UNL     1      18.041   7.364  19.623  0.00  0.00    +0.000 A 
ATOM     41  C   UNL     1      20.656   6.513  19.748  0.00  0.00    +0.000 A 
ATOM     42  C   UNL     1      18.578   6.681  18.541  0.00  0.00    +0.000 A 
ATOM     43  C   UNL     1      19.901   6.252  18.609  0.00  0.00    +0.000 A 
BRANCH  43  44
ATOM     44  C   UNL     1      20.504   5.515  17.462  0.00  0.00    +0.000 C 
BRANCH  44  46
ATOM     45  O   UNL     1      23.341   5.890  17.494  0.00  0.00    +0.000 OA
ATOM     46  N   UNL     1      21.279   6.376  16.603  0.00  0.00    +0.000 N 
ATOM     47  C   UNL     1      22.642   6.499  16.684  0.00  0.00    +0.000 C 
ATOM     48  C   UNL     1      23.272   7.445  15.691  0.00  0.00    +0.000 C 
BRANCH  46  49
ATOM     49  O   UNL     1      20.489   7.072  15.677  0.00  0.00    +0.000 OA
ATOM     50  H   UNL     1      15.621   6.513  23.184  0.00  0.00    +0.000 HD
ENDBRANCH  46  49
ENDBRANCH  44  46
ENDBRANCH  43  44
ENDBRANCH  37  38
ENDBRANCH   8  37
TORSDOF 15
ENDMDL
MODEL 2
REMARK minimizedAffinity -7.74343157
REMARK minimizedRMSD -1
REMARK  Name = 44305758
REMARK  17 active torsions:
REMARK  status: ('A' for Active; 'I' for Inactive)
REMARK    1  A    between atoms: O_4  and  C_27
REMARK    2  A    between atoms: O_7  and  N_15
REMARK    3  A    between atoms: O_7  and  C_39
REMARK    4  A    between atoms: O_8  and  N_17
REMARK    5  A    between atoms: O_10  and  N_19
REMARK    6  A    between atoms: N_13  and  CA_21
REMARK    7  A    between atoms: N_14  and  C_26
REMARK    8  A    between atoms: N_17  and  C_36
REMARK    9  A    between atoms: N_19  and  C_41
REMARK   10  A    between atoms: CA_23  and  C_27
REMARK   11  A    between atoms: C_24  and  C_26
REMARK   12  A    between atoms: C_28  and  C_31
REMARK   13  A    between atoms: C_31  and  C_35
REMARK   14  A    between atoms: C_34  and  C_36
REMARK   15  A    between atoms: C_39  and  C_41
REMARK   16  A    between atoms: C_40  and  C_42
REMARK   17  A    between atoms: C_43  and  C_44
REMARK                            x       y       z     vdW  Elec       q    Type
REMARK                         _______ _______ _______ _____ _____    ______ ____
ROOT
ATOM      1  S   UNL     1      16.295   5.213  22.916  0.00  0.00    +0.000 S 
ATOM      2  O   UNL     1      13.040   8.529  23.057  0.00  0.00    +0.000 OA
ATOM      3  N   UNL     1      15.219   7.630  23.132  0.00  0.00    +0.000 N 
ATOM      4  C   UNL     1      15.453   6.444  23.936  0.00  0.00    +0.000 C 
ATOM      5  CA  UNL     1      13.917   6.323  24.032  0.00  0.00    +0.000 C 
ATOM      6  C   UNL     1      13.889   7.721  23.353  0.00  0.00    +0.000 C 
ATOM      7  CA  UNL     1      16.192   8.284  22.448  0.00  0.00    +0.000 C 
ATOM      8  C   UNL     1      17.402   7.718  22.226  0.00  0.00    +0.000 C 
ATOM      9  C   UNL     1      17.744   6.283  22.623  0.00  0.00    +0.000 C 
ENDROOT
BRANCH   5  11
ATOM     10  O   UNL     1      12.844   3.749  24.986  0.00  0.00    +0.000 OA
ATOM     11  N   UNL     1      13.247   5.281  23.253  0.00  0.00    +0.000 N 
ATOM     12  C   UNL     1      12.783   4.106  23.821  0.00  0.00    +0.000 C 
ATOM     13  H   UNL     1      14.630   7.891  22.323  0.00  0.00    +0.000 HD
BRANCH  12  15
ATOM     14  N   UNL     1      12.846   2.443  22.043  0.00  0.00    +0.000 NA
ATOM     15  C   UNL     1      12.124   3.190  22.822  0.00  0.00    +0.000 C 
BRANCH  15  19
ATOM     16  S   UNL     1       8.237   2.426  22.403  0.00  0.00    +0.000 S 
ATOM     17  N   UNL     1       9.904   4.292  23.049  0.00  0.00    +0.000 NA
ATOM     18  N   UNL     1       7.624   4.913  23.124  0.00  0.00    +0.000 N 
ATOM     19  C   UNL     1      10.638   3.164  22.744  0.00  0.00    +0.000 A 
ATOM     20  C   UNL     1       9.911   2.053  22.372  0.00  0.00    +0.000 A 
ATOM     21  C   UNL     1       8.627   4.020  22.904  0.00  0.00    +0.000 A 
ATOM     22  H   UNL     1      14.012  -0.835  25.799  0.00  0.00    +0.000 HD
ATOM     23  H   UNL     1      14.012  -0.835  25.799  0.00  0.00    +0.000 HD
ENDBRANCH  15  19
BRANCH  14  24
ATOM     24  O   UNL     1      14.217   2.625  22.273  0.00  0.00    +0.000 OA
BRANCH  24  25
ATOM     25  C   UNL     1      14.922   2.125  21.148  0.00  0.00    +0.000 C 
BRANCH  25  26
ATOM     26  C   UNL     1      15.085   3.231  20.122  0.00  0.00    +0.000 C 
BRANCH  26  28
ATOM     27  O   UNL     1      17.901   3.722  20.082  0.00  0.00    +0.000 OA
ATOM     28  N   UNL     1      16.016   2.861  19.089  0.00  0.00    +0.000 N 
ATOM     29  C   UNL     1      17.360   3.134  19.145  0.00  0.00    +0.000 C 
ATOM     30  C   UNL     1      18.176   2.659  17.969  0.00  0.00    +0.000 C 
BRANCH  28  31
ATOM     31  O   UNL     1      15.405   2.191  18.018  0.00  0.00    +0.000 OA
ATOM     32  H   UNL     1      16.468   3.805  14.113  0.00  0.00    +0.000 HD
ENDBRANCH  28  31
ENDBRANCH  26  28
ENDBRANCH  25  26
ENDBRANCH  24  25
ENDBRANCH  14  24
ENDBRANCH  12  15
ENDBRANCH   5  11
BRANCH   7  34
ATOM     33  OXT UNL     1      15.941  10.647  22.528  0.00  0.00    +0.000 OA
ATOM     34  C   UNL     1      15.853   9.608  21.906  0.00  0.00    +0.000 C 
BRANCH  34  35
ATOM     35  O   UNL     1      15.437   9.474  20.631  0.00  0.00    +0.000 OA
ATOM     36  H   UNL     1      16.181   6.344  23.355  0.00  0.00    +0.000 HD
ENDBRANCH  34  35
ENDBRANCH   7  34
BRANCH   8  37
ATOM     37  C   UNL     1      18.561   8.409  21.548  0.00  0.00    +0.000 C 
BRANCH  37  38
ATOM     38  N   UNL     1      19.109   7.598  20.413  0.00  0.00    +0.000 N 
ATOM     39  C   UNL     1      18.336   7.388  19.338  0.00  0.00    +0.000 A 
ATOM     40  C   UNL     1      20.353   7.108  20.509  0.00  0.00    +0.000 A 
ATOM     41  C   UNL     1      18.817   6.640  18.273  0.00  0.00    +0.000 A 
ATOM     42  C   UNL     1      20.885   6.353  19.474  0.00  0.00    +0.000 A 
ATOM     43  C   UNL     1      20.105   6.119  18.345  0.00  0.00    +0.000 A 
BRANCH  43  44
ATOM     44  C   UNL     1      20.650   5.312  17.217  0.00  0.00    +0.000 C 
BRANCH  44  46
ATOM     45  O   UNL     1      21.235   7.716  15.780  0.00  0.00    +0.000 OA
ATOM     46  N   UNL     1      21.945   5.775  16.786  0.00  0.00    +0.000 N 
ATOM     47  C   UNL     1      22.141   6.945  16.098  0.00  0.00    +0.000 C 
ATOM     48  C   UNL     1      23.573   7.261  15.741  0.00  0.00    +0.000 C 
BRANCH  46  49
ATOM     49  O   UNL     1      22.982   4.903  17.145  0.00  0.00    +0.000 OA
ATOM     50  H   UNL     1      15.927  -0.275  15.204  0.00  0.00    +0.000 HD
ENDBRANCH  46  49
ENDBRANCH  44  46
ENDBRANCH  43  44
ENDBRANCH  37  38
ENDBRANCH   8  37
TORSDOF 15
ENDMDL
MODEL 3
REMARK minimizedAffinity -7.60812616
REMARK minimizedRMSD -1
REMARK  Name = 44305758
REMARK  17 active torsions:
REMARK  status: ('A' for Active; 'I' for Inactive)
REMARK    1  A    between atoms: O_4  and  C_27
REMARK    2  A    between atoms: O_7  and  N_15
REMARK    3  A    between atoms: O_7  and  C_39
REMARK    4  A    between atoms: O_8  and  N_17
REMARK    5  A    between atoms: O_10  and  N_19
REMARK    6  A    between atoms: N_13  and  CA_21
REMARK    7  A    between atoms: N_14  and  C_26
REMARK    8  A    between atoms: N_17  and  C_36
REMARK    9  A    between atoms: N_19  and  C_41
REMARK   10  A    between atoms: CA_23  and  C_27
REMARK   11  A    between atoms: C_24  and  C_26
REMARK   12  A    between atoms: C_28  and  C_31
REMARK   13  A    between atoms: C_31  and  C_35
REMARK   14  A    between atoms: C_34  and  C_36
REMARK   15  A    between atoms: C_39  and  C_41
REMARK   16  A    between atoms: C_40  and  C_42
REMARK   17  A    between atoms: C_43  and  C_44
REMARK                            x       y       z     vdW  Elec       q    Type
REMARK                         _______ _______ _______ _____ _____    ______ ____
ROOT
ATOM      1  S   UNL     1      20.530   6.961  20.254  0.00  0.00    +0.000 S 
ATOM      2  O   UNL     1      19.949   9.151  16.194  0.00  0.00    +0.000 OA
ATOM      3  N   UNL     1      19.337   8.335  18.321  0.00  0.00    +0.000 N 
ATOM      4  C   UNL     1      19.675   6.965  18.662  0.00  0.00    +0.000 C 
ATOM      5  CA  UNL     1      20.568   6.973  17.402  0.00  0.00    +0.000 C 
ATOM      6  C   UNL     1      19.911   8.348  17.097  0.00  0.00    +0.000 C 
ATOM      7  CA  UNL     1      18.648   9.170  19.139  0.00  0.00    +0.000 C 
ATOM      8  C   UNL     1      18.474   8.887  20.452  0.00  0.00    +0.000 C 
ATOM      9  C   UNL     1      19.111   7.683  21.144  0.00  0.00    +0.000 C 
ENDROOT
BRANCH   5  11
ATOM     10  O   UNL     1      22.612   7.540  15.356  0.00  0.00    +0.000 OA
ATOM     11  N   UNL     1      22.020   7.043  17.573  0.00  0.00    +0.000 N 
ATOM     12  C   UNL     1      22.882   7.320  16.526  0.00  0.00    +0.000 C 
ATOM     13  H   UNL     1      19.811   6.212  19.578  0.00  0.00    +0.000 HD
BRANCH  12  15
ATOM     14  N   UNL     1      24.790   8.336  17.648  0.00  0.00    +0.000 NA
ATOM     15  C   UNL     1      24.329   7.345  16.946  0.00  0.00    +0.000 C 
BRANCH  15  19
ATOM     16  S   UNL     1      26.139   3.911  16.051  0.00  0.00    +0.000 S 
ATOM     17  N   UNL     1      26.485   6.472  16.062  0.00  0.00    +0.000 NA
ATOM     18  N   UNL     1      28.327   5.212  15.280  0.00  0.00    +0.000 N 
ATOM     19  C   UNL     1      25.214   6.221  16.538  0.00  0.00    +0.000 A 
ATOM     20  C   UNL     1      24.847   4.893  16.606  0.00  0.00    +0.000 A 
ATOM     21  C   UNL     1      27.065   5.328  15.773  0.00  0.00    +0.000 A 
ATOM     22  H   UNL     1      19.546   7.049  14.567  0.00  0.00    +0.000 HD
ATOM     23  H   UNL     1      19.546   7.049  14.567  0.00  0.00    +0.000 HD
ENDBRANCH  15  19
BRANCH  14  24
ATOM     24  O   UNL     1      23.797   9.288  17.917  0.00  0.00    +0.000 OA
BRANCH  24  25
ATOM     25  C   UNL     1      23.758   9.499  19.319  0.00  0.00    +0.000 C 
BRANCH  25  26
ATOM     26  C   UNL     1      24.993  10.270  19.748  0.00  0.00    +0.000 C 
BRANCH  26  28
ATOM     27  O   UNL     1      24.215  11.743  22.071  0.00  0.00    +0.000 OA
ATOM     28  N   UNL     1      25.345   9.985  21.114  0.00  0.00    +0.000 N 
ATOM     29  C   UNL     1      24.929  10.745  22.178  0.00  0.00    +0.000 C 
ATOM     30  C   UNL     1      25.395  10.283  23.537  0.00  0.00    +0.000 C 
BRANCH  28  31
ATOM     31  O   UNL     1      26.158   8.849  21.243  0.00  0.00    +0.000 OA
ATOM     32  H   UNL     1      29.692   9.502  23.708  0.00  0.00    +0.000 HD
ENDBRANCH  28  31
ENDBRANCH  26  28
ENDBRANCH  25  26
ENDBRANCH  24  25
ENDBRANCH  14  24
ENDBRANCH  12  15
ENDBRANCH   5  11
BRANCH   7  34
ATOM     33  OXT UNL     1      17.173  10.507  17.840  0.00  0.00    +0.000 OA
ATOM     34  C   UNL     1      18.154  10.424  18.552  0.00  0.00    +0.000 C 
BRANCH  34  35
ATOM     35  O   UNL     1      18.955  11.440  18.928  0.00  0.00    +0.000 OA
ATOM     36  H   UNL     1      19.662   7.332  19.568  0.00  0.00    +0.000 HD
ENDBRANCH  34  35
ENDBRANCH   7  34
BRANCH   8  37
ATOM     37  C   UNL     1      17.653   9.721  21.408  0.00  0.00    +0.000 C 
BRANCH  37  38
ATOM     38  N   UNL     1      16.419   9.001  21.860  0.00  0.00    +0.000 N 
ATOM     39  C   UNL     1      16.185   7.767  21.394  0.00  0.00    +0.000 A 
ATOM     40  C   UNL     1      15.589   9.616  22.714  0.00  0.00    +0.000 A 
ATOM     41  C   UNL     1      15.050   7.077  21.795  0.00  0.00    +0.000 A 
ATOM     42  C   UNL     1      14.438   8.973  23.148  0.00  0.00    +0.000 A 
ATOM     43  C   UNL     1      14.169   7.690  22.681  0.00  0.00    +0.000 A 
BRANCH  43  44
ATOM     44  C   UNL     1      12.941   6.975  23.131  0.00  0.00    +0.000 C 
BRANCH  44  46
ATOM     45  O   UNL     1      13.754   6.953  25.874  0.00  0.00    +0.000 OA
ATOM     46  N   UNL     1      13.243   5.821  23.940  0.00  0.00    +0.000 N 
ATOM     47  C   UNL     1      13.628   5.897  25.254  0.00  0.00    +0.000 C 
ATOM     48  C   UNL     1      13.892   4.575  25.933  0.00  0.00    +0.000 C 
BRANCH  46  49
ATOM     49  O   UNL     1      13.101   4.615  23.240  0.00  0.00    +0.000 OA
ATOM     50  H   UNL     1      16.262  10.569  17.331  0.00  0.00    +0.000 HD
ENDBRANCH  46  49
ENDBRANCH  44  46
ENDBRANCH  43  44
ENDBRANCH  37  38
ENDBRANCH   8  37
TORSDOF 15
ENDMDL
MODEL 4
REMARK minimizedAffinity -7.56203461
REMARK minimizedRMSD -1
REMARK  Name = 44305758
REMARK  17 active torsions:
REMARK  status: ('A' for Active; 'I' for Inactive)
REMARK    1  A    between atoms: O_4  and  C_27
REMARK    2  A    between atoms: O_7  and  N_15
REMARK    3  A    between atoms: O_7  and  C_39
REMARK    4  A    between atoms: O_8  and  N_17
REMARK    5  A    between atoms: O_10  and  N_19
REMARK    6  A    between atoms: N_13  and  CA_21
REMARK    7  A    between atoms: N_14  and  C_26
REMARK    8  A    between atoms: N_17  and  C_36
REMARK    9  A    between atoms: N_19  and  C_41
REMARK   10  A    between atoms: CA_23  and  C_27
REMARK   11  A    between atoms: C_24  and  C_26
REMARK   12  A    between atoms: C_28  and  C_31
REMARK   13  A    between atoms: C_31  and  C_35
REMARK   14  A    between atoms: C_34  and  C_36
REMARK   15  A    between atoms: C_39  and  C_41
REMARK   16  A    between atoms: C_40  and  C_42
REMARK   17  A    between atoms: C_43  and  C_44
REMARK                            x       y       z     vdW  Elec       q    Type
REMARK                         _______ _______ _______ _____ _____    ______ ____
ROOT
ATOM      1  S   UNL     1      20.059   4.299  21.378  0.00  0.00    +0.000 S 
ATOM      2  O   UNL     1      15.780   5.237  19.819  0.00  0.00    +0.000 OA
ATOM      3  N   UNL     1      17.480   3.964  20.846  0.00  0.00    +0.000 N 
ATOM      4  C   UNL     1      18.769   3.868  20.187  0.00  0.00    +0.000 C 
ATOM      5  CA  UNL     1      18.276   5.005  19.266  0.00  0.00    +0.000 C 
ATOM      6  C   UNL     1      16.897   4.793  19.952  0.00  0.00    +0.000 C 
ATOM      7  CA  UNL     1      17.174   3.327  22.005  0.00  0.00    +0.000 C 
ATOM      8  C   UNL     1      18.136   2.787  22.790  0.00  0.00    +0.000 C 
ATOM      9  C   UNL     1      19.631   2.931  22.506  0.00  0.00    +0.000 C 
ENDROOT
BRANCH   5  11
ATOM     10  O   UNL     1      18.816   7.054  17.218  0.00  0.00    +0.000 OA
ATOM     11  N   UNL     1      18.824   6.348  19.457  0.00  0.00    +0.000 N 
ATOM     12  C   UNL     1      19.033   7.225  18.406  0.00  0.00    +0.000 C 
ATOM     13  H   UNL     1      18.453   4.036  21.484  0.00  0.00    +0.000 HD
BRANCH  12  15
ATOM     14  N   UNL     1      18.807   9.513  19.209  0.00  0.00    +0.000 NA
ATOM     15  C   UNL     1      19.600   8.549  18.849  0.00  0.00    +0.000 C 
BRANCH  15  19
ATOM     16  S   UNL     1      23.508   8.904  18.164  0.00  0.00    +0.000 S 
ATOM     17  N   UNL     1      21.735   9.009  20.042  0.00  0.00    +0.000 NA
ATOM     18  N   UNL     1      23.962   9.393  20.739  0.00  0.00    +0.000 N 
ATOM     19  C   UNL     1      21.077   8.731  18.861  0.00  0.00    +0.000 A 
ATOM     20  C   UNL     1      21.869   8.635  17.736  0.00  0.00    +0.000 A 
ATOM     21  C   UNL     1      23.021   9.121  19.795  0.00  0.00    +0.000 A 
ATOM     22  H   UNL     1      17.263  11.653  15.171  0.00  0.00    +0.000 HD
ATOM     23  H   UNL     1      17.263  11.653  15.171  0.00  0.00    +0.000 HD
ENDBRANCH  15  19
BRANCH  14  24
ATOM     24  O   UNL     1      17.459   9.139  19.118  0.00  0.00    +0.000 OA
BRANCH  24  25
ATOM     25  C   UNL     1      16.716   9.948  20.014  0.00  0.00    +0.000 C 
BRANCH  25  26
ATOM     26  C   UNL     1      17.281   9.800  21.415  0.00  0.00    +0.000 C 
BRANCH  26  28
ATOM     27  O   UNL     1      15.068  10.246  23.169  0.00  0.00    +0.000 OA
ATOM     28  N   UNL     1      16.562   8.811  22.173  0.00  0.00    +0.000 N 
ATOM     29  C   UNL     1      15.505   9.107  22.997  0.00  0.00    +0.000 C 
ATOM     30  C   UNL     1      14.874   7.933  23.703  0.00  0.00    +0.000 C 
BRANCH  28  31
ATOM     31  O   UNL     1      17.055   7.511  21.982  0.00  0.00    +0.000 OA
ATOM     32  H   UNL     1      17.786   5.355  25.697  0.00  0.00    +0.000 HD
ENDBRANCH  28  31
ENDBRANCH  26  28
ENDBRANCH  25  26
ENDBRANCH  24  25
ENDBRANCH  14  24
ENDBRANCH  12  15
ENDBRANCH   5  11
BRANCH   7  34
ATOM     33  OXT UNL     1      15.238   4.129  23.127  0.00  0.00    +0.000 OA
ATOM     34  C   UNL     1      15.758   3.306  22.402  0.00  0.00    +0.000 C 
BRANCH  34  35
ATOM     35  O   UNL     1      15.152   2.243  21.837  0.00  0.00    +0.000 OA
ATOM     36  H   UNL     1      19.291   3.048  21.840  0.00  0.00    +0.000 HD
ENDBRANCH  34  35
ENDBRANCH   7  34
BRANCH   8  37
ATOM     37  C   UNL     1      17.873   1.995  24.049  0.00  0.00    +0.000 C 
BRANCH  37  38
ATOM     38  N   UNL     1      18.407   2.686  25.266  0.00  0.00    +0.000 N 
ATOM     39  C   UNL     1      18.044   3.955  25.499  0.00  0.00    +0.000 A 
ATOM     40  C   UNL     1      19.231   2.014  26.082  0.00  0.00    +0.000 A 
ATOM     41  C   UNL     1      18.523   4.620  26.619  0.00  0.00    +0.000 A 
ATOM     42  C   UNL     1      19.741   2.630  27.216  0.00  0.00    +0.000 A 
ATOM     43  C   UNL     1      19.381   3.947  27.483  0.00  0.00    +0.000 A 
BRANCH  43  44
ATOM     44  C   UNL     1      19.913   4.634  28.694  0.00  0.00    +0.000 C 
BRANCH  44  46
ATOM     45  O   UNL     1      20.559   7.214  29.749  0.00  0.00    +0.000 OA
ATOM     46  N   UNL     1      21.085   5.423  28.408  0.00  0.00    +0.000 N 
ATOM     47  C   UNL     1      21.321   6.656  28.957  0.00  0.00    +0.000 C 
ATOM     48  C   UNL     1      22.609   7.322  28.539  0.00  0.00    +0.000 C 
BRANCH  46  49
ATOM     49  O   UNL     1      21.957   4.794  27.508  0.00  0.00    +0.000 OA
ATOM     50  H   UNL     1      13.667   2.598  24.898  0.00  0.00    +0.000 HD
ENDBRANCH  46  49
ENDBRANCH  44  46
ENDBRANCH  43  44
ENDBRANCH  37  38
ENDBRANCH   8  37
TORSDOF 15
ENDMDL
MODEL 5
REMARK minimizedAffinity -7.48455715
REMARK minimizedRMSD -1
REMARK  Name = 44305758
REMARK  17 active torsions:
REMARK  status: ('A' for Active; 'I' for Inactive)
REMARK    1  A    between atoms: O_4  and  C_27
REMARK    2  A    between atoms: O_7  and  N_15
REMARK    3  A    between atoms: O_7  and  C_39
REMARK    4  A    between atoms: O_8  and  N_17
REMARK    5  A    between atoms: O_10  and  N_19
REMARK    6  A    between atoms: N_13  and  CA_21
REMARK    7  A    between atoms: N_14  and  C_26
REMARK    8  A    between atoms: N_17  and  C_36
REMARK    9  A    between atoms: N_19  and  C_41
REMARK   10  A    between atoms: CA_23  and  C_27
REMARK   11  A    between atoms: C_24  and  C_26
REMARK   12  A    between atoms: C_28  and  C_31
REMARK   13  A    between atoms: C_31  and  C_35
REMARK   14  A    between atoms: C_34  and  C_36
REMARK   15  A    between atoms: C_39  and  C_41
REMARK   16  A    between atoms: C_40  and  C_42
REMARK   17  A    between atoms: C_43  and  C_44
REMARK                            x       y       z     vdW  Elec       q    Type
REMARK                         _______ _______ _______ _____ _____    ______ ____
ROOT
ATOM      1  S   UNL     1      17.900   5.532  21.970  0.00  0.00    +0.000 S 
ATOM      2  O   UNL     1      13.848   7.682  22.727  0.00  0.00    +0.000 OA
ATOM      3  N   UNL     1      16.193   7.469  22.585  0.00  0.00    +0.000 N 
ATOM      4  C   UNL     1      16.823   6.312  23.193  0.00  0.00    +0.000 C 
ATOM      5  CA  UNL     1      15.400   5.728  23.329  0.00  0.00    +0.000 C 
ATOM      6  C   UNL     1      14.915   7.131  22.867  0.00  0.00    +0.000 C 
ATOM      7  CA  UNL     1      16.877   8.467  21.969  0.00  0.00    +0.000 C 
ATOM      8  C   UNL     1      18.177   8.321  21.619  0.00  0.00    +0.000 C 
ATOM      9  C   UNL     1      18.950   7.013  21.784  0.00  0.00    +0.000 C 
ENDROOT
BRANCH   5  11
ATOM     10  O   UNL     1      14.745   2.940  24.023  0.00  0.00    +0.000 OA
ATOM     11  N   UNL     1      14.999   4.646  22.430  0.00  0.00    +0.000 N 
ATOM     12  C   UNL     1      14.715   3.367  22.880  0.00  0.00    +0.000 C 
ATOM     13  H   UNL     1      15.950   7.523  21.791  0.00  0.00    +0.000 HD
BRANCH  12  15
ATOM     14  N   UNL     1      13.067   2.163  21.552  0.00  0.00    +0.000 NA
ATOM     15  C   UNL     1      14.320   2.427  21.771  0.00  0.00    +0.000 C 
BRANCH  15  19
ATOM     16  S   UNL     1      17.237   0.290  20.099  0.00  0.00    +0.000 S 
ATOM     17  N   UNL     1      15.718   2.346  19.713  0.00  0.00    +0.000 NA
ATOM     18  N   UNL     1      17.246   1.884  17.969  0.00  0.00    +0.000 N 
ATOM     19  C   UNL     1      15.387   1.807  20.941  0.00  0.00    +0.000 A 
ATOM     20  C   UNL     1      16.102   0.690  21.321  0.00  0.00    +0.000 A 
ATOM     21  C   UNL     1      16.681   1.628  19.180  0.00  0.00    +0.000 A 
ATOM     22  H   UNL     1      10.668  -1.173  23.296  0.00  0.00    +0.000 HD
ATOM     23  H   UNL     1      10.668  -1.173  23.296  0.00  0.00    +0.000 HD
ENDBRANCH  15  19
BRANCH  14  24
ATOM     24  O   UNL     1      12.229   2.843  22.447  0.00  0.00    +0.000 OA
BRANCH  24  25
ATOM     25  C   UNL     1      10.900   2.395  22.232  0.00  0.00    +0.000 C 
BRANCH  25  26
ATOM     26  C   UNL     1       9.946   3.230  23.066  0.00  0.00    +0.000 C 
BRANCH  26  28
ATOM     27  O   UNL     1       7.766   5.073  22.911  0.00  0.00    +0.000 OA
ATOM     28  N   UNL     1       8.573   2.926  22.761  0.00  0.00    +0.000 N 
ATOM     29  C   UNL     1       7.581   3.873  22.705  0.00  0.00    +0.000 C 
ATOM     30  C   UNL     1       6.204   3.361  22.362  0.00  0.00    +0.000 C 
BRANCH  28  31
ATOM     31  O   UNL     1       8.355   1.560  22.526  0.00  0.00    +0.000 OA
ATOM     32  H   UNL     1       4.999  -0.085  24.766  0.00  0.00    +0.000 HD
ENDBRANCH  28  31
ENDBRANCH  26  28
ENDBRANCH  25  26
ENDBRANCH  24  25
ENDBRANCH  14  24
ENDBRANCH  12  15
ENDBRANCH   5  11
BRANCH   7  34
ATOM     33  OXT UNL     1      15.984  10.627  22.401  0.00  0.00    +0.000 OA
ATOM     34  C   UNL     1      16.127   9.689  21.643  0.00  0.00    +0.000 C 
BRANCH  34  35
ATOM     35  O   UNL     1      15.639   9.592  20.391  0.00  0.00    +0.000 OA
ATOM     36  H   UNL     1      17.502   6.514  22.589  0.00  0.00    +0.000 HD
ENDBRANCH  34  35
ENDBRANCH   7  34
BRANCH   8  37
ATOM     37  C   UNL     1      19.029   9.408  21.008  0.00  0.00    +0.000 C 
BRANCH  37  38
ATOM     38  N   UNL     1      19.669   8.963  19.728  0.00  0.00    +0.000 N 
ATOM     39  C   UNL     1      18.883   8.578  18.713  0.00  0.00    +0.000 A 
ATOM     40  C   UNL     1      21.006   8.963  19.640  0.00  0.00    +0.000 A 
ATOM     41  C   UNL     1      19.448   8.161  17.516  0.00  0.00    +0.000 A 
ATOM     42  C   UNL     1      21.626   8.555  18.467  0.00  0.00    +0.000 A 
ATOM     43  C   UNL     1      20.834   8.150  17.396  0.00  0.00    +0.000 A 
BRANCH  43  44
ATOM     44  C   UNL     1      21.472   7.707  16.124  0.00  0.00    +0.000 C 
BRANCH  44  46
ATOM     45  O   UNL     1      19.672   5.675  15.219  0.00  0.00    +0.000 OA
ATOM     46  N   UNL     1      21.708   6.286  16.094  0.00  0.00    +0.000 N 
ATOM     47  C   UNL     1      20.788   5.374  15.643  0.00  0.00    +0.000 C 
ATOM     48  C   UNL     1      21.226   3.930  15.684  0.00  0.00    +0.000 C 
BRANCH  46  49
ATOM     49  O   UNL     1      22.978   5.935  16.574  0.00  0.00    +0.000 OA
ATOM     50  H   UNL     1      20.276  12.908  21.518  0.00  0.00    +0.000 HD
ENDBRANCH  46  49
ENDBRANCH  44  46
ENDBRANCH  43  44
ENDBRANCH  37  38
ENDBRANCH   8  37
TORSDOF 15
ENDMDL
MODEL 6
REMARK minimizedAffinity -7.40609407
REMARK minimizedRMSD -1
REMARK  Name = 44305758
REMARK  17 active torsions:
REMARK  status: ('A' for Active; 'I' for Inactive)
REMARK    1  A    between atoms: O_4  and  C_27
REMARK    2  A    between atoms: O_7  and  N_15
REMARK    3  A    between atoms: O_7  and  C_39
REMARK    4  A    between atoms: O_8  and  N_17
REMARK    5  A    between atoms: O_10  and  N_19
REMARK    6  A    between atoms: N_13  and  CA_21
REMARK    7  A    between atoms: N_14  and  C_26
REMARK    8  A    between atoms: N_17  and  C_36
REMARK    9  A    between atoms: N_19  and  C_41
REMARK   10  A    between atoms: CA_23  and  C_27
REMARK   11  A    between atoms: C_24  and  C_26
REMARK   12  A    between atoms: C_28  and  C_31
REMARK   13  A    between atoms: C_31  and  C_35
REMARK   14  A    between atoms: C_34  and  C_36
REMARK   15  A    between atoms: C_39  and  C_41
REMARK   16  A    between atoms: C_40  and  C_42
REMARK   17  A    between atoms: C_43  and  C_44
REMARK                            x       y       z     vdW  Elec       q    Type
REMARK                         _______ _______ _______ _____ _____    ______ ____
ROOT
ATOM      1  S   UNL     1      16.552   3.984  21.588  0.00  0.00    +0.000 S 
ATOM      2  O   UNL     1      15.833   8.552  21.104  0.00  0.00    +0.000 OA
ATOM      3  N   UNL     1      15.307   6.327  21.683  0.00  0.00    +0.000 N 
ATOM      4  C   UNL     1      15.613   5.272  20.735  0.00  0.00    +0.000 C 
ATOM      5  CA  UNL     1      16.438   6.330  19.970  0.00  0.00    +0.000 C 
ATOM      6  C   UNL     1      15.815   7.351  20.962  0.00  0.00    +0.000 C 
ATOM      7  CA  UNL     1      14.692   6.117  22.875  0.00  0.00    +0.000 C 
ATOM      8  C   UNL     1      14.578   4.875  23.402  0.00  0.00    +0.000 C 
ATOM      9  C   UNL     1      15.208   3.634  22.772  0.00  0.00    +0.000 C 
ENDROOT
BRANCH   5  11
ATOM     10  O   UNL     1      18.277   4.884  18.178  0.00  0.00    +0.000 OA
ATOM     11  N   UNL     1      17.898   6.265  20.038  0.00  0.00    +0.000 N 
ATOM     12  C   UNL     1      18.657   5.546  19.130  0.00  0.00    +0.000 C 
ATOM     13  H   UNL     1      15.862   7.532  21.997  0.00  0.00    +0.000 HD
BRANCH  12  15
ATOM     14  N   UNL     1      20.898   6.368  18.649  0.00  0.00    +0.000 NA
ATOM     15  C   UNL     1      20.136   5.632  19.401  0.00  0.00    +0.000 C 
BRANCH  15  19
ATOM     16  S   UNL     1      22.123   4.116  22.504  0.00  0.00    +0.000 S 
ATOM     17  N   UNL     1      20.171   3.631  20.881  0.00  0.00    +0.000 NA
ATOM     18  N   UNL     1      20.575   1.953  22.497  0.00  0.00    +0.000 N 
ATOM     19  C   UNL     1      20.705   4.857  20.537  0.00  0.00    +0.000 A 
ATOM     20  C   UNL     1      21.769   5.287  21.302  0.00  0.00    +0.000 A 
ATOM     21  C   UNL     1      20.839   3.148  21.904  0.00  0.00    +0.000 A 
ATOM     22  H   UNL     1      18.947  10.647  20.837  0.00  0.00    +0.000 HD
ATOM     23  H   UNL     1      18.947  10.647  20.837  0.00  0.00    +0.000 HD
ENDBRANCH  15  19
BRANCH  14  24
ATOM     24  O   UNL     1      20.167   7.005  17.636  0.00  0.00    +0.000 OA
BRANCH  24  25
ATOM     25  C   UNL     1      20.783   8.254  17.369  0.00  0.00    +0.000 C 
BRANCH  25  26
ATOM     26  C   UNL     1      20.383   9.254  18.440  0.00  0.00    +0.000 C 
BRANCH  26  28
ATOM     27  O   UNL     1      18.499  10.257  20.341  0.00  0.00    +0.000 OA
ATOM     28  N   UNL     1      19.100   9.841  18.162  0.00  0.00    +0.000 N 
ATOM     29  C   UNL     1      18.250  10.301  19.135  0.00  0.00    +0.000 C 
ATOM     30  C   UNL     1      16.950  10.893  18.647  0.00  0.00    +0.000 C 
BRANCH  28  31
ATOM     31  O   UNL     1      18.809   9.895  16.790  0.00  0.00    +0.000 OA
ATOM     32  H   UNL     1      14.868   8.337  15.778  0.00  0.00    +0.000 HD
ENDBRANCH  28  31
ENDBRANCH  26  28
ENDBRANCH  25  26
ENDBRANCH  24  25
ENDBRANCH  14  24
ENDBRANCH  12  15
ENDBRANCH   5  11
BRANCH   7  34
ATOM     33  OXT UNL     1      13.090   7.757  23.502  0.00  0.00    +0.000 OA
ATOM     34  C   UNL     1      14.213   7.305  23.597  0.00  0.00    +0.000 C 
BRANCH  34  35
ATOM     35  O   UNL     1      15.207   7.793  24.364  0.00  0.00    +0.000 OA
ATOM     36  H   UNL     1      15.549   4.740  21.476  0.00  0.00    +0.000 HD
ENDBRANCH  34  35
ENDBRANCH   7  34
BRANCH   8  37
ATOM     37  C   UNL     1      13.840   4.549  24.679  0.00  0.00    +0.000 C 
BRANCH  37  38
ATOM     38  N   UNL     1      12.481   3.978  24.409  0.00  0.00    +0.000 N 
ATOM     39  C   UNL     1      11.737   4.517  23.434  0.00  0.00    +0.000 A 
ATOM     40  C   UNL     1      12.054   2.948  25.152  0.00  0.00    +0.000 A 
ATOM     41  C   UNL     1      10.475   4.009  23.162  0.00  0.00    +0.000 A 
ATOM     42  C   UNL     1      10.799   2.400  24.925  0.00  0.00    +0.000 A 
ATOM     43  C   UNL     1      10.004   2.940  23.918  0.00  0.00    +0.000 A 
BRANCH  43  44
ATOM     44  C   UNL     1       8.653   2.371  23.651  0.00  0.00    +0.000 C 
BRANCH  44  46
ATOM     45  O   UNL     1       7.059   4.680  23.086  0.00  0.00    +0.000 OA
ATOM     46  N   UNL     1       7.636   2.954  24.490  0.00  0.00    +0.000 N 
ATOM     47  C   UNL     1       6.914   4.067  24.145  0.00  0.00    +0.000 C 
ATOM     48  C   UNL     1       5.889   4.519  25.155  0.00  0.00    +0.000 C 
BRANCH  46  49
ATOM     49  O   UNL     1       7.465   2.261  25.697  0.00  0.00    +0.000 OA
ATOM     50  H   UNL     1      16.223   1.881  23.821  0.00  0.00    +0.000 HD
ENDBRANCH  46  49
ENDBRANCH  44  46
ENDBRANCH  43  44
ENDBRANCH  37  38
ENDBRANCH   8  37
TORSDOF 15
ENDMDL
MODEL 7
REMARK minimizedAffinity -7.39603758
REMARK minimizedRMSD -1
REMARK  Name = 44305758
REMARK  17 active torsions:
REMARK  status: ('A' for Active; 'I' for Inactive)
REMARK    1  A    between atoms: O_4  and  C_27
REMARK    2  A    between atoms: O_7  and  N_15
REMARK    3  A    between atoms: O_7  and  C_39
REMARK    4  A    between atoms: O_8  and  N_17
REMARK    5  A    between atoms: O_10  and  N_19
REMARK    6  A    between atoms: N_13  and  CA_21
REMARK    7  A    between atoms: N_14  and  C_26
REMARK    8  A    between atoms: N_17  and  C_36
REMARK    9  A    between atoms: N_19  and  C_41
REMARK   10  A    between atoms: CA_23  and  C_27
REMARK   11  A    between atoms: C_24  and  C_26
REMARK   12  A    between atoms: C_28  and  C_31
REMARK   13  A    between atoms: C_31  and  C_35
REMARK   14  A    between atoms: C_34  and  C_36
REMARK   15  A    between atoms: C_39  and  C_41
REMARK   16  A    between atoms: C_40  and  C_42
REMARK   17  A    between atoms: C_43  and  C_44
REMARK                            x       y       z     vdW  Elec       q    Type
REMARK                         _______ _______ _______ _____ _____    ______ ____
ROOT
ATOM      1  S   UNL     1      18.467   6.815  21.408  0.00  0.00    +0.000 S 
ATOM      2  O   UNL     1      15.321   9.817  19.764  0.00  0.00    +0.000 OA
ATOM      3  N   UNL     1      17.443   9.083  20.485  0.00  0.00    +0.000 N 
ATOM      4  C   UNL     1      17.534   8.331  21.722  0.00  0.00    +0.000 C 
ATOM      5  CA  UNL     1      15.995   8.217  21.654  0.00  0.00    +0.000 C 
ATOM      6  C   UNL     1      16.099   9.220  20.471  0.00  0.00    +0.000 C 
ATOM      7  CA  UNL     1      18.517   9.431  19.731  0.00  0.00    +0.000 C 
ATOM      8  C   UNL     1      19.729   8.856  19.919  0.00  0.00    +0.000 C 
ATOM      9  C   UNL     1      19.972   7.713  20.903  0.00  0.00    +0.000 C 
ENDROOT
BRANCH   5  11
ATOM     10  O   UNL     1      15.355   5.935  23.406  0.00  0.00    +0.000 OA
ATOM     11  N   UNL     1      15.403   6.932  21.281  0.00  0.00    +0.000 N 
ATOM     12  C   UNL     1      15.149   5.931  22.203  0.00  0.00    +0.000 C 
ATOM     13  H   UNL     1      16.347   9.287  19.505  0.00  0.00    +0.000 HD
BRANCH  12  15
ATOM     14  N   UNL     1      13.275   4.437  21.772  0.00  0.00    +0.000 NA
ATOM     15  C   UNL     1      14.532   4.704  21.584  0.00  0.00    +0.000 C 
BRANCH  15  19
ATOM     16  S   UNL     1      16.563   2.680  18.817  0.00  0.00    +0.000 S 
ATOM     17  N   UNL     1      16.155   2.829  21.365  0.00  0.00    +0.000 NA
ATOM     18  N   UNL     1      17.665   1.141  20.687  0.00  0.00    +0.000 N 
ATOM     19  C   UNL     1      15.389   3.807  20.762  0.00  0.00    +0.000 A 
ATOM     20  C   UNL     1      15.478   3.880  19.388  0.00  0.00    +0.000 A 
ATOM     21  C   UNL     1      16.815   2.174  20.438  0.00  0.00    +0.000 A 
ATOM     22  H   UNL     1      15.436   9.857  20.467  0.00  0.00    +0.000 HD
ATOM     23  H   UNL     1      15.436   9.857  20.467  0.00  0.00    +0.000 HD
ENDBRANCH  15  19
BRANCH  14  24
ATOM     24  O   UNL     1      12.655   5.400  22.579  0.00  0.00    +0.000 OA
BRANCH  24  25
ATOM     25  C   UNL     1      11.894   4.724  23.566  0.00  0.00    +0.000 C 
BRANCH  25  26
ATOM     26  C   UNL     1      11.045   3.654  22.904  0.00  0.00    +0.000 C 
BRANCH  26  28
ATOM     27  O   UNL     1       8.433   4.746  22.509  0.00  0.00    +0.000 OA
ATOM     28  N   UNL     1       9.861   3.369  23.671  0.00  0.00    +0.000 N 
ATOM     29  C   UNL     1       8.638   3.938  23.416  0.00  0.00    +0.000 C 
ATOM     30  C   UNL     1       7.512   3.508  24.324  0.00  0.00    +0.000 C 
BRANCH  28  31
ATOM     31  O   UNL     1      10.088   2.450  24.706  0.00  0.00    +0.000 OA
ATOM     32  H   UNL     1       8.538   3.746  28.566  0.00  0.00    +0.000 HD
ENDBRANCH  28  31
ENDBRANCH  26  28
ENDBRANCH  25  26
ENDBRANCH  24  25
ENDBRANCH  14  24
ENDBRANCH  12  15
ENDBRANCH   5  11
BRANCH   7  34
ATOM     33  OXT UNL     1      18.068  10.124  17.502  0.00  0.00    +0.000 OA
ATOM     34  C   UNL     1      18.292  10.413  18.660  0.00  0.00    +0.000 C 
BRANCH  34  35
ATOM     35  O   UNL     1      18.373  11.657  19.171  0.00  0.00    +0.000 OA
ATOM     36  H   UNL     1      19.345   8.071  21.164  0.00  0.00    +0.000 HD
ENDBRANCH  34  35
ENDBRANCH   7  34
BRANCH   8  37
ATOM     37  C   UNL     1      20.987   9.245  19.180  0.00  0.00    +0.000 C 
BRANCH  37  38
ATOM     38  N   UNL     1      21.457   8.155  18.265  0.00  0.00    +0.000 N 
ATOM     39  C   UNL     1      22.615   7.538  18.539  0.00  0.00    +0.000 A 
ATOM     40  C   UNL     1      20.707   7.834  17.203  0.00  0.00    +0.000 A 
ATOM     41  C   UNL     1      23.075   6.525  17.709  0.00  0.00    +0.000 A 
ATOM     42  C   UNL     1      21.118   6.830  16.338  0.00  0.00    +0.000 A 
ATOM     43  C   UNL     1      22.316   6.171  16.598  0.00  0.00    +0.000 A 
BRANCH  43  44
ATOM     44  C   UNL     1      22.783   5.087  15.687  0.00  0.00    +0.000 C 
BRANCH  44  46
ATOM     45  O   UNL     1      20.469   4.004  14.400  0.00  0.00    +0.000 OA
ATOM     46  N   UNL     1      22.145   3.825  15.963  0.00  0.00    +0.000 N 
ATOM     47  C   UNL     1      21.033   3.377  15.298  0.00  0.00    +0.000 C 
ATOM     48  C   UNL     1      20.517   2.025  15.726  0.00  0.00    +0.000 C 
BRANCH  46  49
ATOM     49  O   UNL     1      22.782   3.105  16.984  0.00  0.00    +0.000 OA
ATOM     50  H   UNL     1      23.422  11.752  19.257  0.00  0.00    +0.000 HD
ENDBRANCH  46  49
ENDBRANCH  44  46
ENDBRANCH  43  44
ENDBRANCH  37  38
ENDBRANCH   8  37
TORSDOF 15
ENDMDL
MODEL 8
REMARK minimizedAffinity -7.27685738
REMARK minimizedRMSD -1
REMARK  Name = 44305758
REMARK  17 active torsions:
REMARK  status: ('A' for Active; 'I' for Inactive)
REMARK    1  A    between atoms: O_4  and  C_27
REMARK    2  A    between atoms: O_7  and  N_15
REMARK    3  A    between atoms: O_7  and  C_39
REMARK    4  A    between atoms: O_8  and  N_17
REMARK    5  A    between atoms: O_10  and  N_19
REMARK    6  A    between atoms: N_13  and  CA_21
REMARK    7  A    between atoms: N_14  and  C_26
REMARK    8  A    between atoms: N_17  and  C_36
REMARK    9  A    between atoms: N_19  and  C_41
REMARK   10  A    between atoms: CA_23  and  C_27
REMARK   11  A    between atoms: C_24  and  C_26
REMARK   12  A    between atoms: C_28  and  C_31
REMARK   13  A    between atoms: C_31  and  C_35
REMARK   14  A    between atoms: C_34  and  C_36
REMARK   15  A    between atoms: C_39  and  C_41
REMARK   16  A    between atoms: C_40  and  C_42
REMARK   17  A    between atoms: C_43  and  C_44
REMARK                            x       y       z     vdW  Elec       q    Type
REMARK                         _______ _______ _______ _____ _____    ______ ____
ROOT
ATOM      1  S   UNL     1      19.594   6.093  20.160  0.00  0.00    +0.000 S 
ATOM      2  O   UNL     1      16.418   9.465  19.760  0.00  0.00    +0.000 OA
ATOM      3  N   UNL     1      18.576   8.513  19.770  0.00  0.00    +0.000 N 
ATOM      4  C   UNL     1      18.938   7.625  20.859  0.00  0.00    +0.000 C 
ATOM      5  CA  UNL     1      17.440   7.625  21.230  0.00  0.00    +0.000 C 
ATOM      6  C   UNL     1      17.302   8.742  20.158  0.00  0.00    +0.000 C 
ATOM      7  CA  UNL     1      19.423   8.868  18.770  0.00  0.00    +0.000 C 
ATOM      8  C   UNL     1      20.577   8.194  18.549  0.00  0.00    +0.000 C 
ATOM      9  C   UNL     1      20.976   6.936  19.319  0.00  0.00    +0.000 C 
ENDROOT
BRANCH   5  11
ATOM     10  O   UNL     1      16.884   5.332  22.997  0.00  0.00    +0.000 OA
ATOM     11  N   UNL     1      16.645   6.432  20.937  0.00  0.00    +0.000 N 
ATOM     12  C   UNL     1      16.456   5.415  21.857  0.00  0.00    +0.000 C 
ATOM     13  H   UNL     1      17.501   8.766  19.090  0.00  0.00    +0.000 HD
BRANCH  12  15
ATOM     14  N   UNL     1      14.348   4.210  21.671  0.00  0.00    +0.000 NA
ATOM     15  C   UNL     1      15.598   4.295  21.328  0.00  0.00    +0.000 C 
BRANCH  15  19
ATOM     16  S   UNL     1      16.567   1.563  18.596  0.00  0.00    +0.000 S 
ATOM     17  N   UNL     1      17.545   2.964  20.535  0.00  0.00    +0.000 NA
ATOM     18  N   UNL     1      19.081   1.518  19.466  0.00  0.00    +0.000 N 
ATOM     19  C   UNL     1      16.209   3.291  20.416  0.00  0.00    +0.000 A 
ATOM     20  C   UNL     1      15.514   2.635  19.422  0.00  0.00    +0.000 A 
ATOM     21  C   UNL     1      17.845   2.063  19.627  0.00  0.00    +0.000 A 
ATOM     22  H   UNL     1      13.017   8.113  18.610  0.00  0.00    +0.000 HD
ATOM     23  H   UNL     1      13.017   8.113  18.610  0.00  0.00    +0.000 HD
ENDBRANCH  15  19
BRANCH  14  24
ATOM     24  O   UNL     1      13.976   5.246  22.539  0.00  0.00    +0.000 OA
BRANCH  24  25
ATOM     25  C   UNL     1      12.962   6.009  21.905  0.00  0.00    +0.000 C 
BRANCH  25  26
ATOM     26  C   UNL     1      12.509   7.119  22.837  0.00  0.00    +0.000 C 
BRANCH  26  28
ATOM     27  O   UNL     1      14.956   7.768  24.163  0.00  0.00    +0.000 OA
ATOM     28  N   UNL     1      13.299   8.309  22.665  0.00  0.00    +0.000 N 
ATOM     29  C   UNL     1      14.468   8.547  23.343  0.00  0.00    +0.000 C 
ATOM     30  C   UNL     1      15.160   9.849  23.023  0.00  0.00    +0.000 C 
BRANCH  28  31
ATOM     31  O   UNL     1      12.748   9.201  21.733  0.00  0.00    +0.000 OA
ATOM     32  H   UNL     1      12.485  13.302  23.182  0.00  0.00    +0.000 HD
ENDBRANCH  28  31
ENDBRANCH  26  28
ENDBRANCH  25  26
ENDBRANCH  24  25
ENDBRANCH  14  24
ENDBRANCH  12  15
ENDBRANCH   5  11
BRANCH   7  34
ATOM     33  OXT UNL     1      18.592   9.834  16.763  0.00  0.00    +0.000 OA
ATOM     34  C   UNL     1      19.001   9.974  17.898  0.00  0.00    +0.000 C 
BRANCH  34  35
ATOM     35  O   UNL     1      19.142  11.141  18.558  0.00  0.00    +0.000 OA
ATOM     36  H   UNL     1      20.506   7.364  19.843  0.00  0.00    +0.000 HD
ENDBRANCH  34  35
ENDBRANCH   7  34
BRANCH   8  37
ATOM     37  C   UNL     1      21.608   8.575  17.513  0.00  0.00    +0.000 C 
BRANCH  37  38
ATOM     38  N   UNL     1      22.912   8.966  18.139  0.00  0.00    +0.000 N 
ATOM     39  C   UNL     1      24.023   8.932  17.390  0.00  0.00    +0.000 A 
ATOM     40  C   UNL     1      22.925   9.336  19.427  0.00  0.00    +0.000 A 
ATOM     41  C   UNL     1      25.244   9.289  17.944  0.00  0.00    +0.000 A 
ATOM     42  C   UNL     1      24.119   9.703  20.033  0.00  0.00    +0.000 A 
ATOM     43  C   UNL     1      25.288   9.678  19.279  0.00  0.00    +0.000 A 
BRANCH  43  44
ATOM     44  C   UNL     1      26.585  10.067  19.903  0.00  0.00    +0.000 C 
BRANCH  44  46
ATOM     45  O   UNL     1      26.767   8.044  21.918  0.00  0.00    +0.000 OA
ATOM     46  N   UNL     1      26.476  10.246  21.329  0.00  0.00    +0.000 N 
ATOM     47  C   UNL     1      26.576   9.220  22.232  0.00  0.00    +0.000 C 
ATOM     48  C   UNL     1      26.442   9.612  23.683  0.00  0.00    +0.000 C 
BRANCH  46  49
ATOM     49  O   UNL     1      26.258  11.583  21.693  0.00  0.00    +0.000 OA
ATOM     50  H   UNL     1      21.813  10.336  14.009  0.00  0.00    +0.000 HD
ENDBRANCH  46  49
ENDBRANCH  44  46
ENDBRANCH  43  44
ENDBRANCH  37  38
ENDBRANCH   8  37
TORSDOF 15
ENDMDL
MODEL 9
REMARK minimizedAffinity -7.2343812
REMARK minimizedRMSD -1
REMARK  Name = 44305758
REMARK  17 active torsions:
REMARK  status: ('A' for Active; 'I' for Inactive)
REMARK    1  A    between atoms: O_4  and  C_27
REMARK    2  A    between atoms: O_7  and  N_15
REMARK    3  A    between atoms: O_7  and  C_39
REMARK    4  A    between atoms: O_8  and  N_17
REMARK    5  A    between atoms: O_10  and  N_19
REMARK    6  A    between atoms: N_13  and  CA_21
REMARK    7  A    between atoms: N_14  and  C_26
REMARK    8  A    between atoms: N_17  and  C_36
REMARK    9  A    between atoms: N_19  and  C_41
REMARK   10  A    between atoms: CA_23  and  C_27
REMARK   11  A    between atoms: C_24  and  C_26
REMARK   12  A    between atoms: C_28  and  C_31
REMARK   13  A    between atoms: C_31  and  C_35
REMARK   14  A    between atoms: C_34  and  C_36
REMARK   15  A    between atoms: C_39  and  C_41
REMARK   16  A    between atoms: C_40  and  C_42
REMARK   17  A    between atoms: C_43  and  C_44
REMARK                            x       y       z     vdW  Elec       q    Type
REMARK                         _______ _______ _______ _____ _____    ______ ____
ROOT
ATOM      1  S   UNL     1      15.903   5.515  21.218  0.00  0.00    +0.000 S 
ATOM      2  O   UNL     1      13.245   7.055  24.708  0.00  0.00    +0.000 OA
ATOM      3  N   UNL     1      15.029   7.093  23.165  0.00  0.00    +0.000 N 
ATOM      4  C   UNL     1      15.816   5.888  22.984  0.00  0.00    +0.000 C 
ATOM      5  CA  UNL     1      14.714   5.163  23.786  0.00  0.00    +0.000 C 
ATOM      6  C   UNL     1      14.147   6.585  24.054  0.00  0.00    +0.000 C 
ATOM      7  CA  UNL     1      15.282   8.265  22.527  0.00  0.00    +0.000 C 
ATOM      8  C   UNL     1      16.108   8.322  21.456  0.00  0.00    +0.000 C 
ATOM      9  C   UNL     1      16.737   7.086  20.813  0.00  0.00    +0.000 C 
ENDROOT
BRANCH   5  11
ATOM     10  O   UNL     1      12.962   3.070  24.899  0.00  0.00    +0.000 OA
ATOM     11  N   UNL     1      13.786   4.288  23.069  0.00  0.00    +0.000 N 
ATOM     12  C   UNL     1      13.011   3.336  23.709  0.00  0.00    +0.000 C 
ATOM     13  H   UNL     1      15.846   6.331  21.987  0.00  0.00    +0.000 HD
BRANCH  12  15
ATOM     14  N   UNL     1      10.900   2.931  22.564  0.00  0.00    +0.000 NA
ATOM     15  C   UNL     1      12.130   2.562  22.763  0.00  0.00    +0.000 C 
BRANCH  15  19
ATOM     16  S   UNL     1      12.948  -0.877  20.927  0.00  0.00    +0.000 S 
ATOM     17  N   UNL     1      14.039   1.306  21.778  0.00  0.00    +0.000 NA
ATOM     18  N   UNL     1      15.521  -0.222  20.748  0.00  0.00    +0.000 N 
ATOM     19  C   UNL     1      12.691   1.370  22.071  0.00  0.00    +0.000 A 
ATOM     20  C   UNL     1      11.938   0.281  21.687  0.00  0.00    +0.000 A 
ATOM     21  C   UNL     1      14.288   0.165  21.175  0.00  0.00    +0.000 A 
ATOM     22  H   UNL     1       7.929   4.570  20.129  0.00  0.00    +0.000 HD
ATOM     23  H   UNL     1       7.929   4.570  20.129  0.00  0.00    +0.000 HD
ENDBRANCH  15  19
BRANCH  14  24
ATOM     24  O   UNL     1      10.571   4.067  23.315  0.00  0.00    +0.000 OA
BRANCH  24  25
ATOM     25  C   UNL     1       9.265   4.478  22.942  0.00  0.00    +0.000 C 
BRANCH  25  26
ATOM     26  C   UNL     1       8.241   3.674  23.723  0.00  0.00    +0.000 C 
BRANCH  26  28
ATOM     27  O   UNL     1       7.297   1.274  22.489  0.00  0.00    +0.000 OA
ATOM     28  N   UNL     1       7.023   3.503  22.977  0.00  0.00    +0.000 N 
ATOM     29  C   UNL     1       6.639   2.313  22.413  0.00  0.00    +0.000 C 
ATOM     30  C   UNL     1       5.323   2.329  21.675  0.00  0.00    +0.000 C 
BRANCH  28  31
ATOM     31  O   UNL     1       6.268   4.683  22.886  0.00  0.00    +0.000 OA
ATOM     32  H   UNL     1       4.988   5.630  18.831  0.00  0.00    +0.000 HD
ENDBRANCH  28  31
ENDBRANCH  26  28
ENDBRANCH  25  26
ENDBRANCH  24  25
ENDBRANCH  14  24
ENDBRANCH  12  15
ENDBRANCH   5  11
BRANCH   7  34
ATOM     33  OXT UNL     1      13.379   9.648  22.871  0.00  0.00    +0.000 OA
ATOM     34  C   UNL     1      14.570   9.456  23.012  0.00  0.00    +0.000 C 
BRANCH  34  35
ATOM     35  O   UNL     1      15.443  10.279  23.626  0.00  0.00    +0.000 OA
ATOM     36  H   UNL     1      16.403   6.827  21.404  0.00  0.00    +0.000 HD
ENDBRANCH  34  35
ENDBRANCH   7  34
BRANCH   8  37
ATOM     37  C   UNL     1      16.504   9.594  20.744  0.00  0.00    +0.000 C 
BRANCH  37  38
ATOM     38  N   UNL     1      17.844   9.472  20.085  0.00  0.00    +0.000 N 
ATOM     39  C   UNL     1      18.898   9.111  20.829  0.00  0.00    +0.000 A 
ATOM     40  C   UNL     1      17.945   9.730  18.774  0.00  0.00    +0.000 A 
ATOM     41  C   UNL     1      20.152   8.991  20.245  0.00  0.00    +0.000 A 
ATOM     42  C   UNL     1      19.174   9.626  18.138  0.00  0.00    +0.000 A 
ATOM     43  C   UNL     1      20.287   9.252  18.885  0.00  0.00    +0.000 A 
BRANCH  43  44
ATOM     44  C   UNL     1      21.620   9.132  18.229  0.00  0.00    +0.000 C 
BRANCH  44  46
ATOM     45  O   UNL     1      20.950   8.149  15.627  0.00  0.00    +0.000 OA
ATOM     46  N   UNL     1      21.859   7.809  17.710  0.00  0.00    +0.000 N 
ATOM     47  C   UNL     1      21.505   7.415  16.446  0.00  0.00    +0.000 C 
ATOM     48  C   UNL     1      21.847   5.990  16.086  0.00  0.00    +0.000 C 
BRANCH  46  49
ATOM     49  O   UNL     1      22.491   6.967  18.637  0.00  0.00    +0.000 OA
ATOM     50  H   UNL     1      16.964  12.195  23.379  0.00  0.00    +0.000 HD
ENDBRANCH  46  49
ENDBRANCH  44  46
ENDBRANCH  43  44
ENDBRANCH  37  38
ENDBRANCH   8  37
TORSDOF 15
ENDMDL
MODEL 10
REMARK minimizedAffinity -7.22563457
REMARK minimizedRMSD -1
REMARK  Name = 44305758
REMARK  17 active torsions:
REMARK  status: ('A' for Active; 'I' for Inactive)
REMARK    1  A    between atoms: O_4  and  C_27
REMARK    2  A    between atoms: O_7  and  N_15
REMARK    3  A    between atoms: O_7  and  C_39
REMARK    4  A    between atoms: O_8  and  N_17
REMARK    5  A    between atoms: O_10  and  N_19
REMARK    6  A    between atoms: N_13  and  CA_21
REMARK    7  A    between atoms: N_14  and  C_26
REMARK    8  A    between atoms: N_17  and  C_36
REMARK    9  A    between atoms: N_19  and  C_41
REMARK   10  A    between atoms: CA_23  and  C_27
REMARK   11  A    between atoms: C_24  and  C_26
REMARK   12  A    between atoms: C_28  and  C_31
REMARK   13  A    between atoms: C_31  and  C_35
REMARK   14  A    between atoms: C_34  and  C_36
REMARK   15  A    between atoms: C_39  and  C_41
REMARK   16  A    between atoms: C_40  and  C_42
REMARK   17  A    between atoms: C_43  and  C_44
REMARK                            x       y       z     vdW  Elec       q    Type
REMARK                         _______ _______ _______ _____ _____    ______ ____
ROOT
ATOM      1  S   UNL     1      20.420   7.482  20.696  0.00  0.00    +0.000 S 
ATOM      2  O   UNL     1      19.791   9.748  16.685  0.00  0.00    +0.000 OA
ATOM      3  N   UNL     1      19.163   8.727  18.716  0.00  0.00    +0.000 N 
ATOM      4  C   UNL     1      19.710   7.421  19.035  0.00  0.00    +0.000 C 
ATOM      5  CA  UNL     1      20.687   7.650  17.861  0.00  0.00    +0.000 C 
ATOM      6  C   UNL     1      19.823   8.904  17.551  0.00  0.00    +0.000 C 
ATOM      7  CA  UNL     1      18.272   9.385  19.501  0.00  0.00    +0.000 C 
ATOM      8  C   UNL     1      18.044   9.008  20.782  0.00  0.00    +0.000 C 
ATOM      9  C   UNL     1      18.827   7.898  21.482  0.00  0.00    +0.000 C 
ENDROOT
BRANCH   5  11
ATOM     10  O   UNL     1      23.051   5.923  17.516  0.00  0.00    +0.000 OA
ATOM     11  N   UNL     1      22.084   7.962  18.164  0.00  0.00    +0.000 N 
ATOM     12  C   UNL     1      23.113   7.060  17.956  0.00  0.00    +0.000 C 
ATOM     13  H   UNL     1      19.508   9.590  18.718  0.00  0.00    +0.000 HD
BRANCH  12  15
ATOM     14  N   UNL     1      24.910   7.469  19.548  0.00  0.00    +0.000 NA
ATOM     15  C   UNL     1      24.464   7.610  18.336  0.00  0.00    +0.000 C 
BRANCH  15  19
ATOM     16  S   UNL     1      25.984   9.826  15.396  0.00  0.00    +0.000 S 
ATOM     17  N   UNL     1      26.620   8.068  17.181  0.00  0.00    +0.000 NA
ATOM     18  N   UNL     1      28.405   8.807  15.817  0.00  0.00    +0.000 N 
ATOM     19  C   UNL     1      25.267   8.318  17.304  0.00  0.00    +0.000 A 
ATOM     20  C   UNL     1      24.742   9.241  16.424  0.00  0.00    +0.000 A 
ATOM     21  C   UNL     1      27.101   8.807  16.206  0.00  0.00    +0.000 A 
ATOM     22  H   UNL     1      21.658  11.034  21.340  0.00  0.00    +0.000 HD
ATOM     23  H   UNL     1      21.658  11.034  21.340  0.00  0.00    +0.000 HD
ENDBRANCH  15  19
BRANCH  14  24
ATOM     24  O   UNL     1      23.998   6.782  20.361  0.00  0.00    +0.000 OA
BRANCH  24  25
ATOM     25  C   UNL     1      24.658   6.435  21.568  0.00  0.00    +0.000 C 
BRANCH  25  26
ATOM     26  C   UNL     1      25.925   7.260  21.705  0.00  0.00    +0.000 C 
BRANCH  26  28
ATOM     27  O   UNL     1      25.470  10.082  21.745  0.00  0.00    +0.000 OA
ATOM     28  N   UNL     1      25.877   8.115  22.861  0.00  0.00    +0.000 N 
ATOM     29  C   UNL     1      25.652   9.467  22.796  0.00  0.00    +0.000 C 
ATOM     30  C   UNL     1      25.629  10.193  24.119  0.00  0.00    +0.000 C 
BRANCH  28  31
ATOM     31  O   UNL     1      26.084   7.420  24.063  0.00  0.00    +0.000 OA
ATOM     32  H   UNL     1      29.065   9.260  26.654  0.00  0.00    +0.000 HD
ENDBRANCH  28  31
ENDBRANCH  26  28
ENDBRANCH  25  26
ENDBRANCH  24  25
ENDBRANCH  14  24
ENDBRANCH  12  15
ENDBRANCH   5  11
BRANCH   7  34
ATOM     33  OXT UNL     1      16.557  10.531  18.320  0.00  0.00    +0.000 OA
ATOM     34  C   UNL     1      17.613  10.563  18.919  0.00  0.00    +0.000 C 
BRANCH  34  35
ATOM     35  O   UNL     1      18.361  11.658  19.158  0.00  0.00    +0.000 OA
ATOM     36  H   UNL     1      19.478   7.658  19.892  0.00  0.00    +0.000 HD
ENDBRANCH  34  35
ENDBRANCH   7  34
BRANCH   8  37
ATOM     37  C   UNL     1      17.014   9.635  21.690  0.00  0.00    +0.000 C 
BRANCH  37  38
ATOM     38  N   UNL     1      15.946   8.659  22.082  0.00  0.00    +0.000 N 
ATOM     39  C   UNL     1      15.875   7.487  21.437  0.00  0.00    +0.000 A 
ATOM     40  C   UNL     1      15.096   8.991  23.064  0.00  0.00    +0.000 A 
ATOM     41  C   UNL     1      14.897   6.564  21.778  0.00  0.00    +0.000 A 
ATOM     42  C   UNL     1      14.097   8.107  23.446  0.00  0.00    +0.000 A 
ATOM     43  C   UNL     1      14.000   6.882  22.794  0.00  0.00    +0.000 A 
BRANCH  43  44
ATOM     44  C   UNL     1      12.937   5.912  23.184  0.00  0.00    +0.000 C 
BRANCH  44  46
ATOM     45  O   UNL     1      13.311   5.874  26.020  0.00  0.00    +0.000 OA
ATOM     46  N   UNL     1      13.451   4.825  23.980  0.00  0.00    +0.000 N 
ATOM     47  C   UNL     1      13.600   4.888  25.341  0.00  0.00    +0.000 C 
ATOM     48  C   UNL     1      14.147   3.643  25.995  0.00  0.00    +0.000 C 
BRANCH  46  49
ATOM     49  O   UNL     1      13.781   3.699  23.213  0.00  0.00    +0.000 OA
ATOM     50  H   UNL     1      15.831  10.829  18.181  0.00  0.00    +0.000 HD
ENDBRANCH  46  49
ENDBRANCH  44  46
ENDBRANCH  43  44
ENDBRANCH  37  38
ENDBRANCH   8  37
TORSDOF 15
ENDMDL
MODEL 11
REMARK minimizedAffinity -7.2006855
REMARK minimizedRMSD -1
REMARK  Name = 44305758
REMARK  17 active torsions:
REMARK  status: ('A' for Active; 'I' for Inactive)
REMARK    1  A    between atoms: O_4  and  C_27
REMARK    2  A    between atoms: O_7  and  N_15
REMARK    3  A    between atoms: O_7  and  C_39
REMARK    4  A    between atoms: O_8  and  N_17
REMARK    5  A    between atoms: O_10  and  N_19
REMARK    6  A    between atoms: N_13  and  CA_21
REMARK    7  A    between atoms: N_14  and  C_26
REMARK    8  A    between atoms: N_17  and  C_36
REMARK    9  A    between atoms: N_19  and  C_41
REMARK   10  A    between atoms: CA_23  and  C_27
REMARK   11  A    between atoms: C_24  and  C_26
REMARK   12  A    between atoms: C_28  and  C_31
REMARK   13  A    between atoms: C_31  and  C_35
REMARK   14  A    between atoms: C_34  and  C_36
REMARK   15  A    between atoms: C_39  and  C_41
REMARK   16  A    between atoms: C_40  and  C_42
REMARK   17  A    between atoms: C_43  and  C_44
REMARK                            x       y       z     vdW  Elec       q    Type
REMARK                         _______ _______ _______ _____ _____    ______ ____
ROOT
ATOM      1  S   UNL     1      15.450   5.511  21.195  0.00  0.00    +0.000 S 
ATOM      2  O   UNL     1      13.280   7.323  24.886  0.00  0.00    +0.000 OA
ATOM      3  N   UNL     1      14.908   7.183  23.184  0.00  0.00    +0.000 N 
ATOM      4  C   UNL     1      15.563   5.909  22.955  0.00  0.00    +0.000 C 
ATOM      5  CA  UNL     1      14.480   5.295  23.868  0.00  0.00    +0.000 C 
ATOM      6  C   UNL     1      14.071   6.766  24.160  0.00  0.00    +0.000 C 
ATOM      7  CA  UNL     1      15.205   8.320  22.504  0.00  0.00    +0.000 C 
ATOM      8  C   UNL     1      15.929   8.290  21.361  0.00  0.00    +0.000 C 
ATOM      9  C   UNL     1      16.381   6.996  20.686  0.00  0.00    +0.000 C 
ENDROOT
BRANCH   5  11
ATOM     10  O   UNL     1      13.341   2.746  24.812  0.00  0.00    +0.000 OA
ATOM     11  N   UNL     1      13.414   4.502  23.256  0.00  0.00    +0.000 N 
ATOM     12  C   UNL     1      12.962   3.312  23.799  0.00  0.00    +0.000 C 
ATOM     13  H   UNL     1      14.855   7.044  22.228  0.00  0.00    +0.000 HD
BRANCH  12  15
ATOM     14  N   UNL     1      12.136   1.944  21.962  0.00  0.00    +0.000 NA
ATOM     15  C   UNL     1      11.856   2.680  22.995  0.00  0.00    +0.000 C 
BRANCH  15  19
ATOM     16  S   UNL     1       8.164   2.725  24.492  0.00  0.00    +0.000 S 
ATOM     17  N   UNL     1       9.745   3.994  22.889  0.00  0.00    +0.000 NA
ATOM     18  N   UNL     1       7.576   4.913  23.098  0.00  0.00    +0.000 N 
ATOM     19  C   UNL     1      10.445   2.920  23.402  0.00  0.00    +0.000 A 
ATOM     20  C   UNL     1       9.756   2.118  24.287  0.00  0.00    +0.000 A 
ATOM     21  C   UNL     1       8.532   3.991  23.393  0.00  0.00    +0.000 A 
ATOM     22  H   UNL     1      15.063   2.125  27.241  0.00  0.00    +0.000 HD
ATOM     23  H   UNL     1      15.063   2.125  27.241  0.00  0.00    +0.000 HD
ENDBRANCH  15  19
BRANCH  14  24
ATOM     24  O   UNL     1      13.518   1.852  21.749  0.00  0.00    +0.000 OA
BRANCH  24  25
ATOM     25  C   UNL     1      13.749   0.830  20.794  0.00  0.00    +0.000 C 
BRANCH  25  26
ATOM     26  C   UNL     1      13.404  -0.518  21.402  0.00  0.00    +0.000 C 
BRANCH  26  28
ATOM     27  O   UNL     1      10.680  -1.313  21.750  0.00  0.00    +0.000 OA
ATOM     28  N   UNL     1      12.612  -1.316  20.504  0.00  0.00    +0.000 N 
ATOM     29  C   UNL     1      11.304  -1.656  20.745  0.00  0.00    +0.000 C 
ATOM     30  C   UNL     1      10.638  -2.493  19.681  0.00  0.00    +0.000 C 
BRANCH  28  31
ATOM     31  O   UNL     1      13.317  -1.710  19.357  0.00  0.00    +0.000 OA
ATOM     32  H   UNL     1      13.004  -5.969  18.491  0.00  0.00    +0.000 HD
ENDBRANCH  28  31
ENDBRANCH  26  28
ENDBRANCH  25  26
ENDBRANCH  24  25
ENDBRANCH  14  24
ENDBRANCH  12  15
ENDBRANCH   5  11
BRANCH   7  34
ATOM     33  OXT UNL     1      13.472   9.864  23.017  0.00  0.00    +0.000 OA
ATOM     34  C   UNL     1      14.652   9.576  23.030  0.00  0.00    +0.000 C 
BRANCH  34  35
ATOM     35  O   UNL     1      15.652  10.336  23.518  0.00  0.00    +0.000 OA
ATOM     36  H   UNL     1      16.071   6.770  21.306  0.00  0.00    +0.000 HD
ENDBRANCH  34  35
ENDBRANCH   7  34
BRANCH   8  37
ATOM     37  C   UNL     1      16.370   9.513  20.592  0.00  0.00    +0.000 C 
BRANCH  37  38
ATOM     38  N   UNL     1      17.759   9.364  20.051  0.00  0.00    +0.000 N 
ATOM     39  C   UNL     1      17.952   9.471  18.730  0.00  0.00    +0.000 A 
ATOM     40  C   UNL     1      18.763   9.126  20.906  0.00  0.00    +0.000 A 
ATOM     41  C   UNL     1      19.228   9.336  18.201  0.00  0.00    +0.000 A 
ATOM     42  C   UNL     1      20.060   8.982  20.433  0.00  0.00    +0.000 A 
ATOM     43  C   UNL     1      20.290   9.089  19.065  0.00  0.00    +0.000 A 
BRANCH  43  44
ATOM     44  C   UNL     1      21.672   8.940  18.528  0.00  0.00    +0.000 C 
BRANCH  44  46
ATOM     45  O   UNL     1      21.529   8.225  15.761  0.00  0.00    +0.000 OA
ATOM     46  N   UNL     1      21.900   7.638  17.952  0.00  0.00    +0.000 N 
ATOM     47  C   UNL     1      21.811   7.378  16.609  0.00  0.00    +0.000 C 
ATOM     48  C   UNL     1      22.093   5.952  16.200  0.00  0.00    +0.000 C 
BRANCH  46  49
ATOM     49  O   UNL     1      22.222   6.667  18.912  0.00  0.00    +0.000 OA
ATOM     50  H   UNL     1      16.265  12.131  22.788  0.00  0.00    +0.000 HD
ENDBRANCH  46  49
ENDBRANCH  44  46
ENDBRANCH  43  44
ENDBRANCH  37  38
ENDBRANCH   8  37
TORSDOF 15
ENDMDL
MODEL 12
REMARK minimizedAffinity -7.13678026
REMARK minimizedRMSD -1
REMARK  Name = 44305758
REMARK  17 active torsions:
REMARK  status: ('A' for Active; 'I' for Inactive)
REMARK    1  A    between atoms: O_4  and  C_27
REMARK    2  A    between atoms: O_7  and  N_15
REMARK    3  A    between atoms: O_7  and  C_39
REMARK    4  A    between atoms: O_8  and  N_17
REMARK    5  A    between atoms: O_10  and  N_19
REMARK    6  A    between atoms: N_13  and  CA_21
REMARK    7  A    between atoms: N_14  and  C_26
REMARK    8  A    between atoms: N_17  and  C_36
REMARK    9  A    between atoms: N_19  and  C_41
REMARK   10  A    between atoms: CA_23  and  C_27
REMARK   11  A    between atoms: C_24  and  C_26
REMARK   12  A    between atoms: C_28  and  C_31
REMARK   13  A    between atoms: C_31  and  C_35
REMARK   14  A    between atoms: C_34  and  C_36
REMARK   15  A    between atoms: C_39  and  C_41
REMARK   16  A    between atoms: C_40  and  C_42
REMARK   17  A    between atoms: C_43  and  C_44
REMARK                            x       y       z     vdW  Elec       q    Type
REMARK                         _______ _______ _______ _____ _____    ______ ____
ROOT
ATOM      1  S   UNL     1      21.580   4.120  20.249  0.00  0.00    +0.000 S 
ATOM      2  O   UNL     1      18.770   5.635  16.869  0.00  0.00    +0.000 OA
ATOM      3  N   UNL     1      19.514   4.196  18.583  0.00  0.00    +0.000 N 
ATOM      4  C   UNL     1      20.911   3.802  18.600  0.00  0.00    +0.000 C 
ATOM      5  CA  UNL     1      21.136   4.904  17.543  0.00  0.00    +0.000 C 
ATOM      6  C   UNL     1      19.586   5.016  17.511  0.00  0.00    +0.000 C 
ATOM      7  CA  UNL     1      18.592   3.751  19.474  0.00  0.00    +0.000 C 
ATOM      8  C   UNL     1      18.959   3.135  20.623  0.00  0.00    +0.000 C 
ATOM      9  C   UNL     1      20.413   2.978  21.064  0.00  0.00    +0.000 C 
ENDROOT
BRANCH   5  11
ATOM     10  O   UNL     1      21.858   7.217  15.866  0.00  0.00    +0.000 OA
ATOM     11  N   UNL     1      21.804   6.140  17.951  0.00  0.00    +0.000 N 
ATOM     12  C   UNL     1      22.091   7.162  17.062  0.00  0.00    +0.000 C 
ATOM     13  H   UNL     1      21.226   3.558  19.559  0.00  0.00    +0.000 HD
BRANCH  12  15
ATOM     14  N   UNL     1      22.094   9.171  18.439  0.00  0.00    +0.000 NA
ATOM     15  C   UNL     1      22.776   8.335  17.715  0.00  0.00    +0.000 C 
BRANCH  15  19
ATOM     16  S   UNL     1      26.755   8.499  17.817  0.00  0.00    +0.000 S 
ATOM     17  N   UNL     1      24.711   9.129  16.366  0.00  0.00    +0.000 NA
ATOM     18  N   UNL     1      26.811   9.714  15.451  0.00  0.00    +0.000 N 
ATOM     19  C   UNL     1      24.238   8.518  17.511  0.00  0.00    +0.000 A 
ATOM     20  C   UNL     1      25.195   8.107  18.415  0.00  0.00    +0.000 A 
ATOM     21  C   UNL     1      26.023   9.174  16.420  0.00  0.00    +0.000 A 
ATOM     22  H   UNL     1      21.570   3.257  18.890  0.00  0.00    +0.000 HD
ATOM     23  H   UNL     1      21.570   3.257  18.890  0.00  0.00    +0.000 HD
ENDBRANCH  15  19
BRANCH  14  24
ATOM     24  O   UNL     1      20.738   8.822  18.497  0.00  0.00    +0.000 OA
BRANCH  24  25
ATOM     25  C   UNL     1      20.325   8.882  19.853  0.00  0.00    +0.000 C 
BRANCH  25  26
ATOM     26  C   UNL     1      19.602  10.192  20.103  0.00  0.00    +0.000 C 
BRANCH  26  28
ATOM     27  O   UNL     1      17.522  10.492  18.165  0.00  0.00    +0.000 OA
ATOM     28  N   UNL     1      18.192   9.987  20.305  0.00  0.00    +0.000 N 
ATOM     29  C   UNL     1      17.253  10.153  19.318  0.00  0.00    +0.000 C 
ATOM     30  C   UNL     1      15.824   9.883  19.720  0.00  0.00    +0.000 C 
BRANCH  28  31
ATOM     31  O   UNL     1      17.878   9.601  21.617  0.00  0.00    +0.000 OA
ATOM     32  H   UNL     1      14.657  11.931  23.401  0.00  0.00    +0.000 HD
ENDBRANCH  28  31
ENDBRANCH  26  28
ENDBRANCH  25  26
ENDBRANCH  24  25
ENDBRANCH  14  24
ENDBRANCH  12  15
ENDBRANCH   5  11
BRANCH   7  34
ATOM     33  OXT UNL     1      16.575   5.008  19.546  0.00  0.00    +0.000 OA
ATOM     34  C   UNL     1      17.180   4.026  19.167  0.00  0.00    +0.000 C 
BRANCH  34  35
ATOM     35  O   UNL     1      16.685   3.025  18.413  0.00  0.00    +0.000 OA
ATOM     36  H   UNL     1      20.445   3.089  20.320  0.00  0.00    +0.000 HD
ENDBRANCH  34  35
ENDBRANCH   7  34
BRANCH   8  37
ATOM     37  C   UNL     1      17.996   2.541  21.623  0.00  0.00    +0.000 C 
BRANCH  37  38
ATOM     38  N   UNL     1      17.272   3.599  22.399  0.00  0.00    +0.000 N 
ATOM     39  C   UNL     1      15.976   3.417  22.685  0.00  0.00    +0.000 A 
ATOM     40  C   UNL     1      17.944   4.695  22.779  0.00  0.00    +0.000 A 
ATOM     41  C   UNL     1      15.281   4.380  23.402  0.00  0.00    +0.000 A 
ATOM     42  C   UNL     1      17.299   5.692  23.497  0.00  0.00    +0.000 A 
ATOM     43  C   UNL     1      15.952   5.529  23.810  0.00  0.00    +0.000 A 
BRANCH  43  44
ATOM     44  C   UNL     1      15.233   6.582  24.580  0.00  0.00    +0.000 C 
BRANCH  44  46
ATOM     45  O   UNL     1      12.696   6.448  23.264  0.00  0.00    +0.000 OA
ATOM     46  N   UNL     1      14.642   7.581  23.725  0.00  0.00    +0.000 N 
ATOM     47  C   UNL     1      13.415   7.438  23.130  0.00  0.00    +0.000 C 
ATOM     48  C   UNL     1      12.966   8.599  22.276  0.00  0.00    +0.000 C 
BRANCH  46  49
ATOM     49  O   UNL     1      15.455   8.713  23.569  0.00  0.00    +0.000 OA
ATOM     50  H   UNL     1      21.013   1.695  24.043  0.00  0.00    +0.000 HD
ENDBRANCH  46  49
ENDBRANCH  44  46
ENDBRANCH  43  44
ENDBRANCH  37  38
ENDBRANCH   8  37
TORSDOF 15
ENDMDL
MODEL 13
REMARK minimizedAffinity -7.08565474
REMARK minimizedRMSD -1
REMARK  Name = 44305758
REMARK  17 active torsions:
REMARK  status: ('A' for Active; 'I' for Inactive)
REMARK    1  A    between atoms: O_4  and  C_27
REMARK    2  A    between atoms: O_7  and  N_15
REMARK    3  A    between atoms: O_7  and  C_39
REMARK    4  A    between atoms: O_8  and  N_17
REMARK    5  A    between atoms: O_10  and  N_19
REMARK    6  A    between atoms: N_13  and  CA_21
REMARK    7  A    between atoms: N_14  and  C_26
REMARK    8  A    between atoms: N_17  and  C_36
REMARK    9  A    between atoms: N_19  and  C_41
REMARK   10  A    between atoms: CA_23  and  C_27
REMARK   11  A    between atoms: C_24  and  C_26
REMARK   12  A    between atoms: C_28  and  C_31
REMARK   13  A    between atoms: C_31  and  C_35
REMARK   14  A    between atoms: C_34  and  C_36
REMARK   15  A    between atoms: C_39  and  C_41
REMARK   16  A    between atoms: C_40  and  C_42
REMARK   17  A    between atoms: C_43  and  C_44
REMARK                            x       y       z     vdW  Elec       q    Type
REMARK                         _______ _______ _______ _____ _____    ______ ____
ROOT
ATOM      1  S   UNL     1      19.800   7.339  16.821  0.00  0.00    +0.000 S 
ATOM      2  O   UNL     1      24.269   6.706  17.937  0.00  0.00    +0.000 OA
ATOM      3  N   UNL     1      22.211   7.852  17.806  0.00  0.00    +0.000 N 
ATOM      4  C   UNL     1      21.505   7.868  16.539  0.00  0.00    +0.000 C 
ATOM      5  CA  UNL     1      22.497   6.776  16.082  0.00  0.00    +0.000 C 
ATOM      6  C   UNL     1      23.242   7.072  17.413  0.00  0.00    +0.000 C 
ATOM      7  CA  UNL     1      21.779   8.495  18.921  0.00  0.00    +0.000 C 
ATOM      8  C   UNL     1      20.511   8.962  19.021  0.00  0.00    +0.000 C 
ATOM      9  C   UNL     1      19.442   8.722  17.957  0.00  0.00    +0.000 C 
ENDROOT
BRANCH   5  11
ATOM     10  O   UNL     1      24.018   4.385  15.273  0.00  0.00    +0.000 OA
ATOM     11  N   UNL     1      22.019   5.398  15.973  0.00  0.00    +0.000 N 
ATOM     12  C   UNL     1      22.837   4.352  15.579  0.00  0.00    +0.000 C 
ATOM     13  H   UNL     1      20.463   8.009  16.562  0.00  0.00    +0.000 HD
BRANCH  12  15
ATOM     14  N   UNL     1      21.915   2.369  16.648  0.00  0.00    +0.000 NA
ATOM     15  C   UNL     1      22.124   3.026  15.548  0.00  0.00    +0.000 C 
BRANCH  15  19
ATOM     16  S   UNL     1      21.514   1.167  12.077  0.00  0.00    +0.000 S 
ATOM     17  N   UNL     1      20.509   2.951  13.655  0.00  0.00    +0.000 NA
ATOM     18  N   UNL     1      19.274   2.547  11.679  0.00  0.00    +0.000 N 
ATOM     19  C   UNL     1      21.671   2.485  14.237  0.00  0.00    +0.000 A 
ATOM     20  C   UNL     1      22.353   1.516  13.532  0.00  0.00    +0.000 A 
ATOM     21  C   UNL     1      20.327   2.327  12.513  0.00  0.00    +0.000 A 
ATOM     22  H   UNL     1      23.115  -0.888  19.058  0.00  0.00    +0.000 HD
ATOM     23  H   UNL     1      23.115  -0.888  19.058  0.00  0.00    +0.000 HD
ENDBRANCH  15  19
BRANCH  14  24
ATOM     24  O   UNL     1      22.425   3.048  17.763  0.00  0.00    +0.000 OA
BRANCH  24  25
ATOM     25  C   UNL     1      21.590   2.760  18.874  0.00  0.00    +0.000 C 
BRANCH  25  26
ATOM     26  C   UNL     1      20.676   3.942  19.138  0.00  0.00    +0.000 C 
BRANCH  26  28
ATOM     27  O   UNL     1      18.878   3.946  16.916  0.00  0.00    +0.000 OA
ATOM     28  N   UNL     1      19.292   3.550  19.142  0.00  0.00    +0.000 N 
ATOM     29  C   UNL     1      18.492   3.580  18.027  0.00  0.00    +0.000 C 
ATOM     30  C   UNL     1      17.068   3.123  18.228  0.00  0.00    +0.000 C 
BRANCH  28  31
ATOM     31  O   UNL     1      18.845   3.133  20.405  0.00  0.00    +0.000 OA
ATOM     32  H   UNL     1      15.119   5.016  21.651  0.00  0.00    +0.000 HD
ENDBRANCH  28  31
ENDBRANCH  26  28
ENDBRANCH  25  26
ENDBRANCH  24  25
ENDBRANCH  14  24
ENDBRANCH  12  15
ENDBRANCH   5  11
BRANCH   7  34
ATOM     33  OXT UNL     1      23.416   9.584  20.257  0.00  0.00    +0.000 OA
ATOM     34  C   UNL     1      22.729   8.607  20.038  0.00  0.00    +0.000 C 
BRANCH  34  35
ATOM     35  O   UNL     1      22.706   7.469  20.759  0.00  0.00    +0.000 OA
ATOM     36  H   UNL     1      20.802   8.116  17.053  0.00  0.00    +0.000 HD
ENDBRANCH  34  35
ENDBRANCH   7  34
BRANCH   8  37
ATOM     37  C   UNL     1      19.979   9.757  20.190  0.00  0.00    +0.000 C 
BRANCH  37  38
ATOM     38  N   UNL     1      18.965   8.984  20.976  0.00  0.00    +0.000 N 
ATOM     39  C   UNL     1      19.271   7.744  21.381  0.00  0.00    +0.000 A 
ATOM     40  C   UNL     1      17.784   9.556  21.247  0.00  0.00    +0.000 A 
ATOM     41  C   UNL     1      18.351   7.004  22.111  0.00  0.00    +0.000 A 
ATOM     42  C   UNL     1      16.825   8.863  21.972  0.00  0.00    +0.000 A 
ATOM     43  C   UNL     1      17.116   7.573  22.407  0.00  0.00    +0.000 A 
BRANCH  43  44
ATOM     44  C   UNL     1      16.106   6.804  23.188  0.00  0.00    +0.000 C 
BRANCH  44  46
ATOM     45  O   UNL     1      13.757   8.197  24.044  0.00  0.00    +0.000 OA
ATOM     46  N   UNL     1      14.811   6.798  22.556  0.00  0.00    +0.000 N 
ATOM     47  C   UNL     1      13.731   7.495  23.032  0.00  0.00    +0.000 C 
ATOM     48  C   UNL     1      12.463   7.367  22.224  0.00  0.00    +0.000 C 
BRANCH  46  49
ATOM     49  O   UNL     1      14.774   6.002  21.402  0.00  0.00    +0.000 OA
ATOM     50  H   UNL     1      20.255   1.827  27.137  0.00  0.00    +0.000 HD
ENDBRANCH  46  49
ENDBRANCH  44  46
ENDBRANCH  43  44
ENDBRANCH  37  38
ENDBRANCH   8  37
TORSDOF 15
ENDMDL
MODEL 14
REMARK minimizedAffinity -7.04235458
REMARK minimizedRMSD -1
REMARK  Name = 44305758
REMARK  17 active torsions:
REMARK  status: ('A' for Active; 'I' for Inactive)
REMARK    1  A    between atoms: O_4  and  C_27
REMARK    2  A    between atoms: O_7  and  N_15
REMARK    3  A    between atoms: O_7  and  C_39
REMARK    4  A    between atoms: O_8  and  N_17
REMARK    5  A    between atoms: O_10  and  N_19
REMARK    6  A    between atoms: N_13  and  CA_21
REMARK    7  A    between atoms: N_14  and  C_26
REMARK    8  A    between atoms: N_17  and  C_36
REMARK    9  A    between atoms: N_19  and  C_41
REMARK   10  A    between atoms: CA_23  and  C_27
REMARK   11  A    between atoms: C_24  and  C_26
REMARK   12  A    between atoms: C_28  and  C_31
REMARK   13  A    between atoms: C_31  and  C_35
REMARK   14  A    between atoms: C_34  and  C_36
REMARK   15  A    between atoms: C_39  and  C_41
REMARK   16  A    between atoms: C_40  and  C_42
REMARK   17  A    between atoms: C_43  and  C_44
REMARK                            x       y       z     vdW  Elec       q    Type
REMARK                         _______ _______ _______ _____ _____    ______ ____
ROOT
ATOM      1  S   UNL     1      19.792   6.613  20.178  0.00  0.00    +0.000 S 
ATOM      2  O   UNL     1      19.716   9.478  16.518  0.00  0.00    +0.000 OA
ATOM      3  N   UNL     1      18.874   8.392  18.435  0.00  0.00    +0.000 N 
ATOM      4  C   UNL     1      19.064   6.959  18.560  0.00  0.00    +0.000 C 
ATOM      5  CA  UNL     1      20.048   7.083  17.377  0.00  0.00    +0.000 C 
ATOM      6  C   UNL     1      19.539   8.547  17.268  0.00  0.00    +0.000 C 
ATOM      7  CA  UNL     1      18.200   9.148  19.339  0.00  0.00    +0.000 C 
ATOM      8  C   UNL     1      17.902   8.675  20.573  0.00  0.00    +0.000 C 
ATOM      9  C   UNL     1      18.377   7.318  21.089  0.00  0.00    +0.000 C 
ENDROOT
BRANCH   5  11
ATOM     10  O   UNL     1      22.284   7.651  15.542  0.00  0.00    +0.000 OA
ATOM     11  N   UNL     1      21.483   6.981  17.645  0.00  0.00    +0.000 N 
ATOM     12  C   UNL     1      22.444   7.278  16.693  0.00  0.00    +0.000 C 
ATOM     13  H   UNL     1      19.061   6.174  19.399  0.00  0.00    +0.000 HD
BRANCH  12  15
ATOM     14  N   UNL     1      24.622   6.189  16.698  0.00  0.00    +0.000 NA
ATOM     15  C   UNL     1      23.851   7.104  17.203  0.00  0.00    +0.000 C 
BRANCH  15  19
ATOM     16  S   UNL     1      25.066  10.018  19.633  0.00  0.00    +0.000 S 
ATOM     17  N   UNL     1      24.660   7.467  19.529  0.00  0.00    +0.000 NA
ATOM     18  N   UNL     1      25.456   8.274  21.604  0.00  0.00    +0.000 N 
ATOM     19  C   UNL     1      24.334   7.993  18.294  0.00  0.00    +0.000 A 
ATOM     20  C   UNL     1      24.489   9.356  18.160  0.00  0.00    +0.000 A 
ATOM     21  C   UNL     1      25.058   8.442  20.314  0.00  0.00    +0.000 A 
ATOM     22  H   UNL     1      19.261   8.878  15.104  0.00  0.00    +0.000 HD
ATOM     23  H   UNL     1      19.261   8.878  15.104  0.00  0.00    +0.000 HD
ENDBRANCH  15  19
BRANCH  14  24
ATOM     24  O   UNL     1      23.973   5.460  15.692  0.00  0.00    +0.000 OA
BRANCH  24  25
ATOM     25  C   UNL     1      24.075   4.082  16.011  0.00  0.00    +0.000 C 
BRANCH  25  26
ATOM     26  C   UNL     1      22.692   3.525  16.296  0.00  0.00    +0.000 C 
BRANCH  26  28
ATOM     27  O   UNL     1      20.380   4.493  14.921  0.00  0.00    +0.000 OA
ATOM     28  N   UNL     1      22.091   2.971  15.112  0.00  0.00    +0.000 N 
ATOM     29  C   UNL     1      20.976   3.497  14.509  0.00  0.00    +0.000 C 
ATOM     30  C   UNL     1      20.499   2.780  13.271  0.00  0.00    +0.000 C 
BRANCH  28  31
ATOM     31  O   UNL     1      22.765   1.835  14.638  0.00  0.00    +0.000 OA
ATOM     32  H   UNL     1      20.136  -1.541  13.817  0.00  0.00    +0.000 HD
ENDBRANCH  28  31
ENDBRANCH  26  28
ENDBRANCH  25  26
ENDBRANCH  24  25
ENDBRANCH  14  24
ENDBRANCH  12  15
ENDBRANCH   5  11
BRANCH   7  34
ATOM     33  OXT UNL     1      18.601  11.477  19.087  0.00  0.00    +0.000 OA
ATOM     34  C   UNL     1      17.864  10.523  18.942  0.00  0.00    +0.000 C 
BRANCH  34  35
ATOM     35  O   UNL     1      16.629  10.543  18.403  0.00  0.00    +0.000 OA
ATOM     36  H   UNL     1      18.449   7.280  20.357  0.00  0.00    +0.000 HD
ENDBRANCH  34  35
ENDBRANCH   7  34
BRANCH   8  37
ATOM     37  C   UNL     1      17.087   9.420  21.603  0.00  0.00    +0.000 C 
BRANCH  37  38
ATOM     38  N   UNL     1      15.975   8.578  22.151  0.00  0.00    +0.000 N 
ATOM     39  C   UNL     1      16.167   7.928  23.307  0.00  0.00    +0.000 A 
ATOM     40  C   UNL     1      14.825   8.502  21.467  0.00  0.00    +0.000 A 
ATOM     41  C   UNL     1      15.155   7.141  23.838  0.00  0.00    +0.000 A 
ATOM     42  C   UNL     1      13.778   7.729  21.950  0.00  0.00    +0.000 A 
ATOM     43  C   UNL     1      13.949   7.043  23.149  0.00  0.00    +0.000 A 
BRANCH  43  44
ATOM     44  C   UNL     1      12.843   6.206  23.693  0.00  0.00    +0.000 C 
BRANCH  44  46
ATOM     45  O   UNL     1      13.048   5.637  26.490  0.00  0.00    +0.000 OA
ATOM     46  N   UNL     1      13.322   4.990  24.302  0.00  0.00    +0.000 N 
ATOM     47  C   UNL     1      13.389   4.797  25.657  0.00  0.00    +0.000 C 
ATOM     48  C   UNL     1      13.912   3.452  26.099  0.00  0.00    +0.000 C 
BRANCH  46  49
ATOM     49  O   UNL     1      13.712   4.028  23.359  0.00  0.00    +0.000 OA
ATOM     50  H   UNL     1      15.965  11.978  19.884  0.00  0.00    +0.000 HD
ENDBRANCH  46  49
ENDBRANCH  44  46
ENDBRANCH  43  44
ENDBRANCH  37  38
ENDBRANCH   8  37
TORSDOF 15
ENDMDL
MODEL 15
REMARK minimizedAffinity -6.96609354
REMARK minimizedRMSD -1
REMARK  Name = 44305758
REMARK  17 active torsions:
REMARK  status: ('A' for Active; 'I' for Inactive)
REMARK    1  A    between atoms: O_4  and  C_27
REMARK    2  A    between atoms: O_7  and  N_15
REMARK    3  A    between atoms: O_7  and  C_39
REMARK    4  A    between atoms: O_8  and  N_17
REMARK    5  A    between atoms: O_10  and  N_19
REMARK    6  A    between atoms: N_13  and  CA_21
REMARK    7  A    between atoms: N_14  and  C_26
REMARK    8  A    between atoms: N_17  and  C_36
REMARK    9  A    between atoms: N_19  and  C_41
REMARK   10  A    between atoms: CA_23  and  C_27
REMARK   11  A    between atoms: C_24  and  C_26
REMARK   12  A    between atoms: C_28  and  C_31
REMARK   13  A    between atoms: C_31  and  C_35
REMARK   14  A    between atoms: C_34  and  C_36
REMARK   15  A    between atoms: C_39  and  C_41
REMARK   16  A    between atoms: C_40  and  C_42
REMARK   17  A    between atoms: C_43  and  C_44
REMARK                            x       y       z     vdW  Elec       q    Type
REMARK                         _______ _______ _______ _____ _____    ______ ____
ROOT
ATOM      1  S   UNL     1      16.002   2.984  20.031  0.00  0.00    +0.000 S 
ATOM      2  O   UNL     1      17.338   4.109  24.340  0.00  0.00    +0.000 OA
ATOM      3  N   UNL     1      17.581   3.280  22.144  0.00  0.00    +0.000 N 
ATOM      4  C   UNL     1      16.574   2.369  21.632  0.00  0.00    +0.000 C 
ATOM      5  CA  UNL     1      15.728   2.763  22.861  0.00  0.00    +0.000 C 
ATOM      6  C   UNL     1      17.005   3.504  23.347  0.00  0.00    +0.000 C 
ATOM      7  CA  UNL     1      18.685   3.656  21.450  0.00  0.00    +0.000 C 
ATOM      8  C   UNL     1      18.788   3.442  20.117  0.00  0.00    +0.000 C 
ATOM      9  C   UNL     1      17.656   2.865  19.269  0.00  0.00    +0.000 C 
ENDROOT
BRANCH   5  11
ATOM     10  O   UNL     1      13.872   3.806  24.900  0.00  0.00    +0.000 OA
ATOM     11  N   UNL     1      14.578   3.647  22.666  0.00  0.00    +0.000 N 
ATOM     12  C   UNL     1      13.776   4.070  23.712  0.00  0.00    +0.000 C 
ATOM     13  H   UNL     1      16.432   2.294  20.587  0.00  0.00    +0.000 HD
BRANCH  12  15
ATOM     14  N   UNL     1      11.450   4.518  23.149  0.00  0.00    +0.000 NA
ATOM     15  C   UNL     1      12.658   4.978  23.267  0.00  0.00    +0.000 C 
BRANCH  15  19
ATOM     16  S   UNL     1      12.820   8.798  22.150  0.00  0.00    +0.000 S 
ATOM     17  N   UNL     1      14.185   6.943  23.322  0.00  0.00    +0.000 NA
ATOM     18  N   UNL     1      15.276   9.033  23.145  0.00  0.00    +0.000 N 
ATOM     19  C   UNL     1      12.968   6.401  22.961  0.00  0.00    +0.000 A 
ATOM     20  C   UNL     1      12.096   7.253  22.316  0.00  0.00    +0.000 A 
ATOM     21  C   UNL     1      14.219   8.201  22.945  0.00  0.00    +0.000 A 
ATOM     22  H   UNL     1       7.992   4.485  25.837  0.00  0.00    +0.000 HD
ATOM     23  H   UNL     1       7.992   4.485  25.837  0.00  0.00    +0.000 HD
ENDBRANCH  15  19
BRANCH  14  24
ATOM     24  O   UNL     1      11.377   3.157  23.477  0.00  0.00    +0.000 OA
BRANCH  24  25
ATOM     25  C   UNL     1      10.027   2.849  23.782  0.00  0.00    +0.000 C 
BRANCH  25  26
ATOM     26  C   UNL     1       9.108   3.704  22.929  0.00  0.00    +0.000 C 
BRANCH  26  28
ATOM     27  O   UNL     1       6.581   5.039  22.949  0.00  0.00    +0.000 OA
ATOM     28  N   UNL     1       7.809   3.104  22.784  0.00  0.00    +0.000 N 
ATOM     29  C   UNL     1       6.637   3.817  22.804  0.00  0.00    +0.000 C 
ATOM     30  C   UNL     1       5.374   3.010  22.628  0.00  0.00    +0.000 C 
BRANCH  28  31
ATOM     31  O   UNL     1       7.867   1.711  22.619  0.00  0.00    +0.000 OA
ATOM     32  H   UNL     1       5.177  -0.472  25.261  0.00  0.00    +0.000 HD
ENDBRANCH  28  31
ENDBRANCH  26  28
ENDBRANCH  25  26
ENDBRANCH  24  25
ENDBRANCH  14  24
ENDBRANCH  12  15
ENDBRANCH   5  11
BRANCH   7  34
ATOM     33  OXT UNL     1      19.773   5.568  22.353  0.00  0.00    +0.000 OA
ATOM     34  C   UNL     1      19.735   4.364  22.197  0.00  0.00    +0.000 C 
BRANCH  34  35
ATOM     35  O   UNL     1      20.627   3.470  22.668  0.00  0.00    +0.000 OA
ATOM     36  H   UNL     1      17.487   2.680  19.966  0.00  0.00    +0.000 HD
ENDBRANCH  34  35
ENDBRANCH   7  34
BRANCH   8  37
ATOM     37  C   UNL     1      20.012   3.755  19.289  0.00  0.00    +0.000 C 
BRANCH  37  38
ATOM     38  N   UNL     1      20.076   5.205  18.914  0.00  0.00    +0.000 N 
ATOM     39  C   UNL     1      19.030   5.754  18.280  0.00  0.00    +0.000 A 
ATOM     40  C   UNL     1      21.177   5.904  19.221  0.00  0.00    +0.000 A 
ATOM     41  C   UNL     1      19.062   7.094  17.920  0.00  0.00    +0.000 A 
ATOM     42  C   UNL     1      21.264   7.248  18.884  0.00  0.00    +0.000 A 
ATOM     43  C   UNL     1      20.193   7.845  18.226  0.00  0.00    +0.000 A 
BRANCH  43  44
ATOM     44  C   UNL     1      20.257   9.286  17.853  0.00  0.00    +0.000 C 
BRANCH  44  46
ATOM     45  O   UNL     1      18.721  10.203  20.086  0.00  0.00    +0.000 OA
ATOM     46  N   UNL     1      18.955   9.904  17.819  0.00  0.00    +0.000 N 
ATOM     47  C   UNL     1      18.283  10.316  18.940  0.00  0.00    +0.000 C 
ATOM     48  C   UNL     1      16.934  10.948  18.697  0.00  0.00    +0.000 C 
BRANCH  46  49
ATOM     49  O   UNL     1      18.450  10.036  16.518  0.00  0.00    +0.000 OA
ATOM     50  H   UNL     1      23.003   2.315  16.650  0.00  0.00    +0.000 HD
ENDBRANCH  46  49
ENDBRANCH  44  46
ENDBRANCH  43  44
ENDBRANCH  37  38
ENDBRANCH   8  37
TORSDOF 15
ENDMDL
MODEL 16
REMARK minimizedAffinity -6.9428091
REMARK minimizedRMSD -1
REMARK  Name = 44305758
REMARK  17 active torsions:
REMARK  status: ('A' for Active; 'I' for Inactive)
REMARK    1  A    between atoms: O_4  and  C_27
REMARK    2  A    between atoms: O_7  and  N_15
REMARK    3  A    between atoms: O_7  and  C_39
REMARK    4  A    between atoms: O_8  and  N_17
REMARK    5  A    between atoms: O_10  and  N_19
REMARK    6  A    between atoms: N_13  and  CA_21
REMARK    7  A    between atoms: N_14  and  C_26
REMARK    8  A    between atoms: N_17  and  C_36
REMARK    9  A    between atoms: N_19  and  C_41
REMARK   10  A    between atoms: CA_23  and  C_27
REMARK   11  A    between atoms: C_24  and  C_26
REMARK   12  A    between atoms: C_28  and  C_31
REMARK   13  A    between atoms: C_31  and  C_35
REMARK   14  A    between atoms: C_34  and  C_36
REMARK   15  A    between atoms: C_39  and  C_41
REMARK   16  A    between atoms: C_40  and  C_42
REMARK   17  A    between atoms: C_43  and  C_44
REMARK                            x       y       z     vdW  Elec       q    Type
REMARK                         _______ _______ _______ _____ _____    ______ ____
ROOT
ATOM      1  S   UNL     1      21.149   4.791  21.318  0.00  0.00    +0.000 S 
ATOM      2  O   UNL     1      19.999   4.376  16.832  0.00  0.00    +0.000 OA
ATOM      3  N   UNL     1      20.167   3.726  19.093  0.00  0.00    +0.000 N 
ATOM      4  C   UNL     1      21.438   3.898  19.772  0.00  0.00    +0.000 C 
ATOM      5  CA  UNL     1      21.863   4.750  18.557  0.00  0.00    +0.000 C 
ATOM      6  C   UNL     1      20.537   4.262  17.909  0.00  0.00    +0.000 C 
ATOM      7  CA  UNL     1      19.071   3.170  19.670  0.00  0.00    +0.000 C 
ATOM      8  C   UNL     1      18.988   2.998  21.010  0.00  0.00    +0.000 C 
ATOM      9  C   UNL     1      20.050   3.498  21.988  0.00  0.00    +0.000 C 
ENDROOT
BRANCH   5  11
ATOM     10  O   UNL     1      23.223   6.694  16.808  0.00  0.00    +0.000 OA
ATOM     11  N   UNL     1      21.939   6.203  18.711  0.00  0.00    +0.000 N 
ATOM     12  C   UNL     1      22.614   7.015  17.815  0.00  0.00    +0.000 C 
ATOM     13  H   UNL     1      20.765   4.052  20.604  0.00  0.00    +0.000 HD
BRANCH  12  15
ATOM     14  N   UNL     1      21.539   9.200  17.801  0.00  0.00    +0.000 NA
ATOM     15  C   UNL     1      22.548   8.475  18.180  0.00  0.00    +0.000 C 
BRANCH  15  19
ATOM     16  S   UNL     1      25.919   9.955  19.703  0.00  0.00    +0.000 S 
ATOM     17  N   UNL     1      23.447   9.469  20.278  0.00  0.00    +0.000 NA
ATOM     18  N   UNL     1      24.713  10.437  22.024  0.00  0.00    +0.000 N 
ATOM     19  C   UNL     1      23.659   9.067  18.974  0.00  0.00    +0.000 A 
ATOM     20  C   UNL     1      24.936   9.251  18.486  0.00  0.00    +0.000 A 
ATOM     21  C   UNL     1      24.569   9.952  20.761  0.00  0.00    +0.000 A 
ATOM     22  H   UNL     1      21.954  10.949  13.474  0.00  0.00    +0.000 HD
ATOM     23  H   UNL     1      21.954  10.949  13.474  0.00  0.00    +0.000 HD
ENDBRANCH  15  19
BRANCH  14  24
ATOM     24  O   UNL     1      20.612   8.454  17.061  0.00  0.00    +0.000 OA
BRANCH  24  25
ATOM     25  C   UNL     1      19.360   8.526  17.723  0.00  0.00    +0.000 C 
BRANCH  25  26
ATOM     26  C   UNL     1      19.184   9.910  18.320  0.00  0.00    +0.000 C 
BRANCH  26  28
ATOM     27  O   UNL     1      19.109   9.508  21.149  0.00  0.00    +0.000 OA
ATOM     28  N   UNL     1      18.028   9.974  19.175  0.00  0.00    +0.000 N 
ATOM     29  C   UNL     1      18.076   9.768  20.531  0.00  0.00    +0.000 C 
ATOM     30  C   UNL     1      16.759   9.885  21.259  0.00  0.00    +0.000 C 
BRANCH  28  31
ATOM     31  O   UNL     1      16.847  10.270  18.476  0.00  0.00    +0.000 OA
ATOM     32  H   UNL     1      13.551   7.573  19.398  0.00  0.00    +0.000 HD
ENDBRANCH  28  31
ENDBRANCH  26  28
ENDBRANCH  25  26
ENDBRANCH  24  25
ENDBRANCH  14  24
ENDBRANCH  12  15
ENDBRANCH   5  11
BRANCH   7  34
ATOM     33  OXT UNL     1      17.006   3.547  18.554  0.00  0.00    +0.000 OA
ATOM     34  C   UNL     1      17.953   2.821  18.780  0.00  0.00    +0.000 C 
BRANCH  34  35
ATOM     35  O   UNL     1      18.154   1.590  18.272  0.00  0.00    +0.000 OA
ATOM     36  H   UNL     1      20.410   3.433  21.320  0.00  0.00    +0.000 HD
ENDBRANCH  34  35
ENDBRANCH   7  34
BRANCH   8  37
ATOM     37  C   UNL     1      17.842   2.316  21.719  0.00  0.00    +0.000 C 
BRANCH  37  38
ATOM     38  N   UNL     1      16.979   3.294  22.457  0.00  0.00    +0.000 N 
ATOM     39  C   UNL     1      16.774   4.506  21.922  0.00  0.00    +0.000 A 
ATOM     40  C   UNL     1      16.442   2.927  23.628  0.00  0.00    +0.000 A 
ATOM     41  C   UNL     1      15.980   5.432  22.583  0.00  0.00    +0.000 A 
ATOM     42  C   UNL     1      15.640   3.813  24.334  0.00  0.00    +0.000 A 
ATOM     43  C   UNL     1      15.410   5.078  23.802  0.00  0.00    +0.000 A 
BRANCH  43  44
ATOM     44  C   UNL     1      14.552   6.051  24.537  0.00  0.00    +0.000 C 
BRANCH  44  46
ATOM     45  O   UNL     1      14.518   8.817  23.806  0.00  0.00    +0.000 OA
ATOM     46  N   UNL     1      13.607   6.712  23.672  0.00  0.00    +0.000 N 
ATOM     47  C   UNL     1      13.661   8.048  23.372  0.00  0.00    +0.000 C 
ATOM     48  C   UNL     1      12.584   8.552  22.441  0.00  0.00    +0.000 C 
BRANCH  46  49
ATOM     49  O   UNL     1      12.627   5.842  23.173  0.00  0.00    +0.000 OA
ATOM     50  H   UNL     1      14.387   3.086  31.519  0.00  0.00    +0.000 HD
ENDBRANCH  46  49
ENDBRANCH  44  46
ENDBRANCH  43  44
ENDBRANCH  37  38
ENDBRANCH   8  37
TORSDOF 15
ENDMDL
MODEL 17
REMARK minimizedAffinity -6.91822195
REMARK minimizedRMSD -1
REMARK  Name = 44305758
REMARK  17 active torsions:
REMARK  status: ('A' for Active; 'I' for Inactive)
REMARK    1  A    between atoms: O_4  and  C_27
REMARK    2  A    between atoms: O_7  and  N_15
REMARK    3  A    between atoms: O_7  and  C_39
REMARK    4  A    between atoms: O_8  and  N_17
REMARK    5  A    between atoms: O_10  and  N_19
REMARK    6  A    between atoms: N_13  and  CA_21
REMARK    7  A    between atoms: N_14  and  C_26
REMARK    8  A    between atoms: N_17  and  C_36
REMARK    9  A    between atoms: N_19  and  C_41
REMARK   10  A    between atoms: CA_23  and  C_27
REMARK   11  A    between atoms: C_24  and  C_26
REMARK   12  A    between atoms: C_28  and  C_31
REMARK   13  A    between atoms: C_31  and  C_35
REMARK   14  A    between atoms: C_34  and  C_36
REMARK   15  A    between atoms: C_39  and  C_41
REMARK   16  A    between atoms: C_40  and  C_42
REMARK   17  A    between atoms: C_43  and  C_44
REMARK                            x       y       z     vdW  Elec       q    Type
REMARK                         _______ _______ _______ _____ _____    ______ ____
ROOT
ATOM      1  S   UNL     1      16.634   5.541  22.343  0.00  0.00    +0.000 S 
ATOM      2  O   UNL     1      12.037   6.063  22.798  0.00  0.00    +0.000 OA
ATOM      3  N   UNL     1      14.312   6.653  22.991  0.00  0.00    +0.000 N 
ATOM      4  C   UNL     1      15.246   5.662  23.494  0.00  0.00    +0.000 C 
ATOM      5  CA  UNL     1      14.108   4.635  23.308  0.00  0.00    +0.000 C 
ATOM      6  C   UNL     1      13.211   5.870  23.011  0.00  0.00    +0.000 C 
ATOM      7  CA  UNL     1      14.662   7.922  22.661  0.00  0.00    +0.000 C 
ATOM      8  C   UNL     1      15.959   8.279  22.500  0.00  0.00    +0.000 C 
ATOM      9  C   UNL     1      17.118   7.286  22.568  0.00  0.00    +0.000 C 
ENDROOT
BRANCH   5  11
ATOM     10  O   UNL     1      15.381   1.977  23.270  0.00  0.00    +0.000 OA
ATOM     11  N   UNL     1      14.191   3.691  22.194  0.00  0.00    +0.000 N 
ATOM     12  C   UNL     1      14.821   2.463  22.300  0.00  0.00    +0.000 C 
ATOM     13  H   UNL     1      13.110   6.592  22.278  0.00  0.00    +0.000 HD
BRANCH  12  15
ATOM     14  N   UNL     1      15.574   1.950  20.042  0.00  0.00    +0.000 NA
ATOM     15  C   UNL     1      14.773   1.664  21.024  0.00  0.00    +0.000 C 
BRANCH  15  19
ATOM     16  S   UNL     1      12.654  -1.631  20.301  0.00  0.00    +0.000 S 
ATOM     17  N   UNL     1      12.566   0.636  21.539  0.00  0.00    +0.000 NA
ATOM     18  N   UNL     1      10.629  -0.703  21.757  0.00  0.00    +0.000 N 
ATOM     19  C   UNL     1      13.791   0.552  20.909  0.00  0.00    +0.000 A 
ATOM     20  C   UNL     1      14.022  -0.602  20.190  0.00  0.00    +0.000 A 
ATOM     21  C   UNL     1      11.883  -0.458  21.288  0.00  0.00    +0.000 A 
ATOM     22  H   UNL     1      19.567  -0.097  22.618  0.00  0.00    +0.000 HD
ATOM     23  H   UNL     1      19.567  -0.097  22.618  0.00  0.00    +0.000 HD
ENDBRANCH  15  19
BRANCH  14  24
ATOM     24  O   UNL     1      16.410   3.032  20.352  0.00  0.00    +0.000 OA
BRANCH  24  25
ATOM     25  C   UNL     1      16.679   3.738  19.152  0.00  0.00    +0.000 C 
BRANCH  25  26
ATOM     26  C   UNL     1      17.235   2.779  18.116  0.00  0.00    +0.000 C 
BRANCH  26  28
ATOM     27  O   UNL     1      19.083   4.412  16.672  0.00  0.00    +0.000 OA
ATOM     28  N   UNL     1      18.671   2.718  18.168  0.00  0.00    +0.000 N 
ATOM     29  C   UNL     1      19.493   3.541  17.440  0.00  0.00    +0.000 C 
ATOM     30  C   UNL     1      20.974   3.331  17.636  0.00  0.00    +0.000 C 
BRANCH  28  31
ATOM     31  O   UNL     1      19.144   1.727  19.042  0.00  0.00    +0.000 OA
ATOM     32  H   UNL     1      22.179  -0.855  17.278  0.00  0.00    +0.000 HD
ENDBRANCH  28  31
ENDBRANCH  26  28
ENDBRANCH  25  26
ENDBRANCH  24  25
ENDBRANCH  14  24
ENDBRANCH  12  15
ENDBRANCH   5  11
BRANCH   7  34
ATOM     33  OXT UNL     1      12.974   8.990  21.372  0.00  0.00    +0.000 OA
ATOM     34  C   UNL     1      13.569   8.876  22.425  0.00  0.00    +0.000 C 
BRANCH  34  35
ATOM     35  O   UNL     1      13.344   9.585  23.549  0.00  0.00    +0.000 OA
ATOM     36  H   UNL     1      16.552   6.935  22.866  0.00  0.00    +0.000 HD
ENDBRANCH  34  35
ENDBRANCH   7  34
BRANCH   8  37
ATOM     37  C   UNL     1      16.433   9.684  22.214  0.00  0.00    +0.000 C 
BRANCH  37  38
ATOM     38  N   UNL     1      17.270   9.750  20.973  0.00  0.00    +0.000 N 
ATOM     39  C   UNL     1      18.570   9.439  21.054  0.00  0.00    +0.000 A 
ATOM     40  C   UNL     1      16.691  10.120  19.822  0.00  0.00    +0.000 A 
ATOM     41  C   UNL     1      19.370   9.491  19.921  0.00  0.00    +0.000 A 
ATOM     42  C   UNL     1      17.442  10.191  18.657  0.00  0.00    +0.000 A 
ATOM     43  C   UNL     1      18.796   9.872  18.712  0.00  0.00    +0.000 A 
BRANCH  43  44
ATOM     44  C   UNL     1      19.627   9.939  17.477  0.00  0.00    +0.000 C 
BRANCH  44  46
ATOM     45  O   UNL     1      22.345   9.043  17.507  0.00  0.00    +0.000 OA
ATOM     46  N   UNL     1      20.122   8.645  17.078  0.00  0.00    +0.000 N 
ATOM     47  C   UNL     1      21.446   8.294  17.123  0.00  0.00    +0.000 C 
ATOM     48  C   UNL     1      21.765   6.889  16.670  0.00  0.00    +0.000 C 
BRANCH  46  49
ATOM     49  O   UNL     1      19.105   7.786  16.639  0.00  0.00    +0.000 OA
ATOM     50  H   UNL     1      16.774  16.003  13.920  0.00  0.00    +0.000 HD
ENDBRANCH  46  49
ENDBRANCH  44  46
ENDBRANCH  43  44
ENDBRANCH  37  38
ENDBRANCH   8  37
TORSDOF 15
ENDMDL
MODEL 18
REMARK minimizedAffinity -6.82328796
REMARK minimizedRMSD -1
REMARK  Name = 44305758
REMARK  17 active torsions:
REMARK  status: ('A' for Active; 'I' for Inactive)
REMARK    1  A    between atoms: O_4  and  C_27
REMARK    2  A    between atoms: O_7  and  N_15
REMARK    3  A    between atoms: O_7  and  C_39
REMARK    4  A    between atoms: O_8  and  N_17
REMARK    5  A    between atoms: O_10  and  N_19
REMARK    6  A    between atoms: N_13  and  CA_21
REMARK    7  A    between atoms: N_14  and  C_26
REMARK    8  A    between atoms: N_17  and  C_36
REMARK    9  A    between atoms: N_19  and  C_41
REMARK   10  A    between atoms: CA_23  and  C_27
REMARK   11  A    between atoms: C_24  and  C_26
REMARK   12  A    between atoms: C_28  and  C_31
REMARK   13  A    between atoms: C_31  and  C_35
REMARK   14  A    between atoms: C_34  and  C_36
REMARK   15  A    between atoms: C_39  and  C_41
REMARK   16  A    between atoms: C_40  and  C_42
REMARK   17  A    between atoms: C_43  and  C_44
REMARK                            x       y       z     vdW  Elec       q    Type
REMARK                         _______ _______ _______ _____ _____    ______ ____
ROOT
ATOM      1  S   UNL     1      22.197   5.343  20.348  0.00  0.00    +0.000 S 
ATOM      2  O   UNL     1      21.141   3.699  16.129  0.00  0.00    +0.000 OA
ATOM      3  N   UNL     1      21.127   3.782  18.487  0.00  0.00    +0.000 N 
ATOM      4  C   UNL     1      22.386   3.976  19.182  0.00  0.00    +0.000 C 
ATOM      5  CA  UNL     1      22.984   4.327  17.802  0.00  0.00    +0.000 C 
ATOM      6  C   UNL     1      21.618   3.856  17.230  0.00  0.00    +0.000 C 
ATOM      7  CA  UNL     1      19.937   3.602  19.114  0.00  0.00    +0.000 C 
ATOM      8  C   UNL     1      19.784   3.877  20.431  0.00  0.00    +0.000 C 
ATOM      9  C   UNL     1      20.880   4.503  21.292  0.00  0.00    +0.000 C 
ENDROOT
BRANCH   5  11
ATOM     10  O   UNL     1      24.515   5.412  15.530  0.00  0.00    +0.000 OA
ATOM     11  N   UNL     1      23.290   5.727  17.507  0.00  0.00    +0.000 N 
ATOM     12  C   UNL     1      24.024   6.114  16.399  0.00  0.00    +0.000 C 
ATOM     13  H   UNL     1      21.919   4.460  19.978  0.00  0.00    +0.000 HD
BRANCH  12  15
ATOM     14  N   UNL     1      23.218   8.363  15.929  0.00  0.00    +0.000 NA
ATOM     15  C   UNL     1      24.205   7.607  16.305  0.00  0.00    +0.000 C 
BRANCH  15  19
ATOM     16  S   UNL     1      27.662   9.565  16.600  0.00  0.00    +0.000 S 
ATOM     17  N   UNL     1      26.208   7.778  17.772  0.00  0.00    +0.000 NA
ATOM     18  N   UNL     1      28.257   8.268  18.846  0.00  0.00    +0.000 N 
ATOM     19  C   UNL     1      25.531   8.192  16.643  0.00  0.00    +0.000 A 
ATOM     20  C   UNL     1      26.160   9.154  15.881  0.00  0.00    +0.000 A 
ATOM     21  C   UNL     1      27.344   8.434  17.851  0.00  0.00    +0.000 A 
ATOM     22  H   UNL     1      20.534  11.405  15.455  0.00  0.00    +0.000 HD
ATOM     23  H   UNL     1      20.534  11.405  15.455  0.00  0.00    +0.000 HD
ENDBRANCH  15  19
BRANCH  14  24
ATOM     24  O   UNL     1      22.067   7.615  15.652  0.00  0.00    +0.000 OA
BRANCH  24  25
ATOM     25  C   UNL     1      20.937   8.425  15.933  0.00  0.00    +0.000 C 
BRANCH  25  26
ATOM     26  C   UNL     1      20.914   8.764  17.412  0.00  0.00    +0.000 C 
BRANCH  26  28
ATOM     27  O   UNL     1      20.094   9.557  20.033  0.00  0.00    +0.000 OA
ATOM     28  N   UNL     1      19.748   9.530  17.761  0.00  0.00    +0.000 N 
ATOM     29  C   UNL     1      19.422   9.872  19.050  0.00  0.00    +0.000 C 
ATOM     30  C   UNL     1      18.163  10.687  19.215  0.00  0.00    +0.000 C 
BRANCH  28  31
ATOM     31  O   UNL     1      18.978   9.892  16.645  0.00  0.00    +0.000 OA
ATOM     32  H   UNL     1      14.735   9.006  17.089  0.00  0.00    +0.000 HD
ENDBRANCH  28  31
ENDBRANCH  26  28
ENDBRANCH  25  26
ENDBRANCH  24  25
ENDBRANCH  14  24
ENDBRANCH  12  15
ENDBRANCH   5  11
BRANCH   7  34
ATOM     33  OXT UNL     1      18.508   1.990  18.108  0.00  0.00    +0.000 OA
ATOM     34  C   UNL     1      18.807   3.154  18.287  0.00  0.00    +0.000 C 
BRANCH  34  35
ATOM     35  O   UNL     1      18.175   4.228  17.775  0.00  0.00    +0.000 OA
ATOM     36  H   UNL     1      21.836   4.245  19.866  0.00  0.00    +0.000 HD
ENDBRANCH  34  35
ENDBRANCH   7  34
BRANCH   8  37
ATOM     37  C   UNL     1      18.519   3.628  21.219  0.00  0.00    +0.000 C 
BRANCH  37  38
ATOM     38  N   UNL     1      17.880   4.906  21.670  0.00  0.00    +0.000 N 
ATOM     39  C   UNL     1      17.561   5.046  22.964  0.00  0.00    +0.000 A 
ATOM     40  C   UNL     1      17.647   5.867  20.765  0.00  0.00    +0.000 A 
ATOM     41  C   UNL     1      16.968   6.218  23.410  0.00  0.00    +0.000 A 
ATOM     42  C   UNL     1      17.055   7.060  21.155  0.00  0.00    +0.000 A 
ATOM     43  C   UNL     1      16.714   7.233  22.493  0.00  0.00    +0.000 A 
BRANCH  43  44
ATOM     44  C   UNL     1      16.077   8.504  22.941  0.00  0.00    +0.000 C 
BRANCH  44  46
ATOM     45  O   UNL     1      13.784   7.643  24.420  0.00  0.00    +0.000 OA
ATOM     46  N   UNL     1      14.696   8.599  22.539  0.00  0.00    +0.000 N 
ATOM     47  C   UNL     1      13.651   8.160  23.310  0.00  0.00    +0.000 C 
ATOM     48  C   UNL     1      12.277   8.354  22.718  0.00  0.00    +0.000 C 
BRANCH  46  49
ATOM     49  O   UNL     1      14.537   9.187  21.277  0.00  0.00    +0.000 OA
ATOM     50  H   UNL     1      22.080   4.363  20.845  0.00  0.00    +0.000 HD
ENDBRANCH  46  49
ENDBRANCH  44  46
ENDBRANCH  43  44
ENDBRANCH  37  38
ENDBRANCH   8  37
TORSDOF 15
ENDMDL
MODEL 19
REMARK minimizedAffinity -6.76766729
REMARK minimizedRMSD -1
REMARK  Name = 44305758
REMARK  17 active torsions:
REMARK  status: ('A' for Active; 'I' for Inactive)
REMARK    1  A    between atoms: O_4  and  C_27
REMARK    2  A    between atoms: O_7  and  N_15
REMARK    3  A    between atoms: O_7  and  C_39
REMARK    4  A    between atoms: O_8  and  N_17
REMARK    5  A    between atoms: O_10  and  N_19
REMARK    6  A    between atoms: N_13  and  CA_21
REMARK    7  A    between atoms: N_14  and  C_26
REMARK    8  A    between atoms: N_17  and  C_36
REMARK    9  A    between atoms: N_19  and  C_41
REMARK   10  A    between atoms: CA_23  and  C_27
REMARK   11  A    between atoms: C_24  and  C_26
REMARK   12  A    between atoms: C_28  and  C_31
REMARK   13  A    between atoms: C_31  and  C_35
REMARK   14  A    between atoms: C_34  and  C_36
REMARK   15  A    between atoms: C_39  and  C_41
REMARK   16  A    between atoms: C_40  and  C_42
REMARK   17  A    between atoms: C_43  and  C_44
REMARK                            x       y       z     vdW  Elec       q    Type
REMARK                         _______ _______ _______ _____ _____    ______ ____
ROOT
ATOM      1  S   UNL     1      17.676   8.011  21.287  0.00  0.00    +0.000 S 
ATOM      2  O   UNL     1      17.708   3.867  19.180  0.00  0.00    +0.000 OA
ATOM      3  N   UNL     1      17.738   6.220  19.328  0.00  0.00    +0.000 N 
ATOM      4  C   UNL     1      16.782   6.873  20.203  0.00  0.00    +0.000 C 
ATOM      5  CA  UNL     1      16.490   5.468  20.773  0.00  0.00    +0.000 C 
ATOM      6  C   UNL     1      17.383   4.948  19.612  0.00  0.00    +0.000 C 
ATOM      7  CA  UNL     1      18.629   6.887  18.550  0.00  0.00    +0.000 C 
ATOM      8  C   UNL     1      18.893   8.201  18.746  0.00  0.00    +0.000 C 
ATOM      9  C   UNL     1      18.308   9.013  19.900  0.00  0.00    +0.000 C 
ENDROOT
BRANCH   5  11
ATOM     10  O   UNL     1      15.437   3.477  22.674  0.00  0.00    +0.000 OA
ATOM     11  N   UNL     1      17.002   5.130  22.102  0.00  0.00    +0.000 N 
ATOM     12  C   UNL     1      16.416   4.168  22.906  0.00  0.00    +0.000 C 
ATOM     13  H   UNL     1      17.865   7.363  20.136  0.00  0.00    +0.000 HD
BRANCH  12  15
ATOM     14  N   UNL     1      16.812   4.742  25.239  0.00  0.00    +0.000 NA
ATOM     15  C   UNL     1      17.123   3.993  24.225  0.00  0.00    +0.000 C 
BRANCH  15  19
ATOM     16  S   UNL     1      19.410   0.739  24.457  0.00  0.00    +0.000 S 
ATOM     17  N   UNL     1      19.503   3.321  24.508  0.00  0.00    +0.000 NA
ATOM     18  N   UNL     1      21.589   2.235  24.752  0.00  0.00    +0.000 N 
ATOM     19  C   UNL     1      18.183   2.954  24.338  0.00  0.00    +0.000 A 
ATOM     20  C   UNL     1      17.935   1.598  24.287  0.00  0.00    +0.000 A 
ATOM     21  C   UNL     1      20.239   2.235  24.583  0.00  0.00    +0.000 A 
ATOM     22  H   UNL     1      14.088   3.243  19.884  0.00  0.00    +0.000 HD
ATOM     23  H   UNL     1      14.088   3.243  19.884  0.00  0.00    +0.000 HD
ENDBRANCH  15  19
BRANCH  14  24
ATOM     24  O   UNL     1      15.800   5.656  24.918  0.00  0.00    +0.000 OA
BRANCH  24  25
ATOM     25  C   UNL     1      14.661   5.346  25.704  0.00  0.00    +0.000 C 
BRANCH  25  26
ATOM     26  C   UNL     1      13.412   5.452  24.848  0.00  0.00    +0.000 C 
BRANCH  26  28
ATOM     27  O   UNL     1      13.187   5.967  22.045  0.00  0.00    +0.000 OA
ATOM     28  N   UNL     1      13.319   6.736  24.207  0.00  0.00    +0.000 N 
ATOM     29  C   UNL     1      13.213   6.900  22.848  0.00  0.00    +0.000 C 
ATOM     30  C   UNL     1      13.118   8.326  22.364  0.00  0.00    +0.000 C 
BRANCH  28  31
ATOM     31  O   UNL     1      13.347   7.805  25.116  0.00  0.00    +0.000 OA
ATOM     32  H   UNL     1      16.196  10.927  24.056  0.00  0.00    +0.000 HD
ENDBRANCH  28  31
ENDBRANCH  26  28
ENDBRANCH  25  26
ENDBRANCH  24  25
ENDBRANCH  14  24
ENDBRANCH  12  15
ENDBRANCH   5  11
BRANCH   7  34
ATOM     33  OXT UNL     1      18.940   5.936  16.394  0.00  0.00    +0.000 OA
ATOM     34  C   UNL     1      19.340   6.105  17.528  0.00  0.00    +0.000 C 
BRANCH  34  35
ATOM     35  O   UNL     1      20.482   5.618  18.052  0.00  0.00    +0.000 OA
ATOM     36  H   UNL     1      17.395   7.564  20.164  0.00  0.00    +0.000 HD
ENDBRANCH  34  35
ENDBRANCH   7  34
BRANCH   8  37
ATOM     37  C   UNL     1      19.807   9.031  17.875  0.00  0.00    +0.000 C 
BRANCH  37  38
ATOM     38  N   UNL     1      21.226   8.989  18.354  0.00  0.00    +0.000 N 
ATOM     39  C   UNL     1      22.205   8.807  17.457  0.00  0.00    +0.000 A 
ATOM     40  C   UNL     1      21.471   9.133  19.664  0.00  0.00    +0.000 A 
ATOM     41  C   UNL     1      23.528   8.764  17.872  0.00  0.00    +0.000 A 
ATOM     42  C   UNL     1      22.775   9.097  20.136  0.00  0.00    +0.000 A 
ATOM     43  C   UNL     1      23.812   8.910  19.227  0.00  0.00    +0.000 A 
BRANCH  43  44
ATOM     44  C   UNL     1      25.223   8.868  19.704  0.00  0.00    +0.000 C 
BRANCH  44  46
ATOM     45  O   UNL     1      25.649   8.159  22.443  0.00  0.00    +0.000 OA
ATOM     46  N   UNL     1      25.456   9.764  20.809  0.00  0.00    +0.000 N 
ATOM     47  C   UNL     1      25.651   9.341  22.099  0.00  0.00    +0.000 C 
ATOM     48  C   UNL     1      25.887  10.432  23.114  0.00  0.00    +0.000 C 
BRANCH  46  49
ATOM     49  O   UNL     1      25.461  11.112  20.425  0.00  0.00    +0.000 OA
ATOM     50  H   UNL     1      19.303   7.080  15.307  0.00  0.00    +0.000 HD
ENDBRANCH  46  49
ENDBRANCH  44  46
ENDBRANCH  43  44
ENDBRANCH  37  38
ENDBRANCH   8  37
TORSDOF 15
ENDMDL
MODEL 20
REMARK minimizedAffinity -6.73538828
REMARK minimizedRMSD -1
REMARK  Name = 44305758
REMARK  17 active torsions:
REMARK  status: ('A' for Active; 'I' for Inactive)
REMARK    1  A    between atoms: O_4  and  C_27
REMARK    2  A    between atoms: O_7  and  N_15
REMARK    3  A    between atoms: O_7  and  C_39
REMARK    4  A    between atoms: O_8  and  N_17
REMARK    5  A    between atoms: O_10  and  N_19
REMARK    6  A    between atoms: N_13  and  CA_21
REMARK    7  A    between atoms: N_14  and  C_26
REMARK    8  A    between atoms: N_17  and  C_36
REMARK    9  A    between atoms: N_19  and  C_41
REMARK   10  A    between atoms: CA_23  and  C_27
REMARK   11  A    between atoms: C_24  and  C_26
REMARK   12  A    between atoms: C_28  and  C_31
REMARK   13  A    between atoms: C_31  and  C_35
REMARK   14  A    between atoms: C_34  and  C_36
REMARK   15  A    between atoms: C_39  and  C_41
REMARK   16  A    between atoms: C_40  and  C_42
REMARK   17  A    between atoms: C_43  and  C_44
REMARK                            x       y       z     vdW  Elec       q    Type
REMARK                         _______ _______ _______ _____ _____    ______ ____
ROOT
ATOM      1  S   UNL     1      19.381   6.428  17.096  0.00  0.00    +0.000 S 
ATOM      2  O   UNL     1      24.008   6.279  17.525  0.00  0.00    +0.000 OA
ATOM      3  N   UNL     1      21.866   7.267  17.501  0.00  0.00    +0.000 N 
ATOM      4  C   UNL     1      20.968   6.950  16.406  0.00  0.00    +0.000 C 
ATOM      5  CA  UNL     1      21.962   5.826  16.042  0.00  0.00    +0.000 C 
ATOM      6  C   UNL     1      22.884   6.463  17.119  0.00  0.00    +0.000 C 
ATOM      7  CA  UNL     1      21.565   8.138  18.498  0.00  0.00    +0.000 C 
ATOM      8  C   UNL     1      20.295   8.557  18.710  0.00  0.00    +0.000 C 
ATOM      9  C   UNL     1      19.093   8.023  17.934  0.00  0.00    +0.000 C 
ENDROOT
BRANCH   5  11
ATOM     10  O   UNL     1      20.438   3.956  14.349  0.00  0.00    +0.000 OA
ATOM     11  N   UNL     1      21.592   4.441  16.335  0.00  0.00    +0.000 N 
ATOM     12  C   UNL     1      20.868   3.659  15.451  0.00  0.00    +0.000 C 
ATOM     13  H   UNL     1      22.959   6.564  18.127  0.00  0.00    +0.000 HD
BRANCH  12  15
ATOM     14  N   UNL     1      19.652   2.051  16.817  0.00  0.00    +0.000 NA
ATOM     15  C   UNL     1      20.613   2.267  15.970  0.00  0.00    +0.000 C 
BRANCH  15  19
ATOM     16  S   UNL     1      22.369  -0.894  14.299  0.00  0.00    +0.000 S 
ATOM     17  N   UNL     1      22.762   1.012  16.000  0.00  0.00    +0.000 NA
ATOM     18  N   UNL     1      24.586  -0.463  15.705  0.00  0.00    +0.000 N 
ATOM     19  C   UNL     1      21.482   1.155  15.501  0.00  0.00    +0.000 A 
ATOM     20  C   UNL     1      21.091   0.217  14.569  0.00  0.00    +0.000 A 
ATOM     21  C   UNL     1      23.323  -0.035  15.438  0.00  0.00    +0.000 A 
ATOM     22  H   UNL     1      18.600   5.058  11.873  0.00  0.00    +0.000 HD
ATOM     23  H   UNL     1      18.600   5.058  11.873  0.00  0.00    +0.000 HD
ENDBRANCH  15  19
BRANCH  14  24
ATOM     24  O   UNL     1      18.962   3.229  17.132  0.00  0.00    +0.000 OA
BRANCH  24  25
ATOM     25  C   UNL     1      18.126   2.965  18.247  0.00  0.00    +0.000 C 
BRANCH  25  26
ATOM     26  C   UNL     1      18.731   3.589  19.491  0.00  0.00    +0.000 C 
BRANCH  26  28
ATOM     27  O   UNL     1      19.199   3.411  22.306  0.00  0.00    +0.000 OA
ATOM     28  N   UNL     1      17.758   3.723  20.543  0.00  0.00    +0.000 N 
ATOM     29  C   UNL     1      18.065   3.625  21.877  0.00  0.00    +0.000 C 
ATOM     30  C   UNL     1      16.909   3.802  22.831  0.00  0.00    +0.000 C 
BRANCH  28  31
ATOM     31  O   UNL     1      16.463   3.966  20.060  0.00  0.00    +0.000 OA
ATOM     32  H   UNL     1      13.435   1.360  21.799  0.00  0.00    +0.000 HD
ENDBRANCH  28  31
ENDBRANCH  26  28
ENDBRANCH  25  26
ENDBRANCH  24  25
ENDBRANCH  14  24
ENDBRANCH  12  15
ENDBRANCH   5  11
BRANCH   7  34
ATOM     33  OXT UNL     1      23.430   9.469  19.133  0.00  0.00    +0.000 OA
ATOM     34  C   UNL     1      22.669   8.554  19.376  0.00  0.00    +0.000 C 
BRANCH  34  35
ATOM     35  O   UNL     1      22.690   7.768  20.470  0.00  0.00    +0.000 OA
ATOM     36  H   UNL     1      20.314   7.201  17.033  0.00  0.00    +0.000 HD
ENDBRANCH  34  35
ENDBRANCH   7  34
BRANCH   8  37
ATOM     37  C   UNL     1      19.892   9.583  19.743  0.00  0.00    +0.000 C 
BRANCH  37  38
ATOM     38  N   UNL     1      18.840   9.057  20.672  0.00  0.00    +0.000 N 
ATOM     39  C   UNL     1      17.751   9.803  20.901  0.00  0.00    +0.000 A 
ATOM     40  C   UNL     1      19.023   7.860  21.245  0.00  0.00    +0.000 A 
ATOM     41  C   UNL     1      16.760   9.342  21.757  0.00  0.00    +0.000 A 
ATOM     42  C   UNL     1      18.066   7.349  22.110  0.00  0.00    +0.000 A 
ATOM     43  C   UNL     1      16.924   8.102  22.366  0.00  0.00    +0.000 A 
BRANCH  43  44
ATOM     44  C   UNL     1      15.878   7.579  23.290  0.00  0.00    +0.000 C 
BRANCH  44  46
ATOM     45  O   UNL     1      13.430   8.988  23.744  0.00  0.00    +0.000 OA
ATOM     46  N   UNL     1      14.615   7.367  22.627  0.00  0.00    +0.000 N 
ATOM     47  C   UNL     1      13.484   8.089  22.905  0.00  0.00    +0.000 C 
ATOM     48  C   UNL     1      12.262   7.723  22.098  0.00  0.00    +0.000 C 
BRANCH  46  49
ATOM     49  O   UNL     1      14.669   6.344  21.669  0.00  0.00    +0.000 OA
ATOM     50  H   UNL     1      20.064   3.784  28.355  0.00  0.00    +0.000 HD
ENDBRANCH  46  49
ENDBRANCH  44  46
ENDBRANCH  43  44
ENDBRANCH  37  38
ENDBRANCH   8  37
TORSDOF 15
ENDMDL
