MODEL 1
REMARK minimizedAffinity -8.05687046
REMARK minimizedRMSD -1
REMARK  Name = 170454212
REMARK  11 active torsions:
REMARK  status: ('A' for Active; 'I' for Inactive)
REMARK    1  A    between atoms: O_4  and  C_32
REMARK    2  A    between atoms: O_5  and  C_33
REMARK    3  A    between atoms: O_9  and  N_14
REMARK    4  A    between atoms: N_10  and  C_18
REMARK    5  A    between atoms: N_13  and  CA_31
REMARK    6  A    between atoms: C_26  and  C_27
REMARK    7  A    between atoms: C_28  and  CA_31
REMARK    8  A    between atoms: CA_30  and  C_32
REMARK    9  A    between atoms: CA_31  and  C_33
REMARK   10  A    between atoms: C_34  and  C_35
REMARK   11  A    between atoms: C_35  and  C_36
REMARK                            x       y       z     vdW  Elec       q    Type
REMARK                         _______ _______ _______ _____ _____    ______ ____
ROOT
ATOM      1  S   UNL     1      14.516   6.618  24.610  0.00  0.00    +0.000 S 
ATOM      2  N   UNL     1      16.623   7.063  22.972  0.00  0.00    +0.000 N 
ATOM      3  C   UNL     1      15.995   4.731  23.152  0.00  0.00    +0.000 C 
ATOM      4  C   UNL     1      15.378   7.666  23.399  0.00  0.00    +0.000 C 
ATOM      5  C   UNL     1      14.626   5.029  23.735  0.00  0.00    +0.000 C 
ATOM      6  CA  UNL     1      16.870   5.712  22.828  0.00  0.00    +0.000 C 
ATOM      7  H   UNL     1      15.829   4.151  20.996  0.00  0.00    +0.000 HD
ENDROOT
BRANCH   3  14
ATOM      8  O   UNL     1      16.692   0.473  22.494  0.00  0.00    +0.000 OA
ATOM      9  N   UNL     1      15.648   0.892  20.426  0.00  0.00    +0.000 N 
ATOM     10  C   UNL     1      15.028   2.012  19.751  0.00  0.00    +0.000 C 
ATOM     11  C   UNL     1      15.351   3.239  20.592  0.00  0.00    +0.000 C 
ATOM     12  C   UNL     1      16.161   1.206  21.676  0.00  0.00    +0.000 C 
ATOM     13  C   UNL     1      15.936   2.664  21.841  0.00  0.00    +0.000 C 
ATOM     14  C   UNL     1      16.222   3.310  22.974  0.00  0.00    +0.000 C 
BRANCH   9  16
ATOM     15  N   UNL     1      14.974  -1.803  18.090  0.00  0.00    +0.000 NA
ATOM     16  C   UNL     1      15.625  -0.422  19.853  0.00  0.00    +0.000 C 
ATOM     17  C   UNL     1      16.900  -0.780  19.105  0.00  0.00    +0.000 C 
ATOM     18  C   UNL     1      14.547  -0.592  18.800  0.00  0.00    +0.000 C 
ATOM     19  C   UNL     1      16.435  -1.692  17.973  0.00  0.00    +0.000 C 
ATOM     20  H   UNL     1      14.412   3.861  21.753  0.00  0.00    +0.000 HD
ENDBRANCH   9  16
ENDBRANCH   3  14
BRANCH   6  22
ATOM     21  OXT UNL     1      19.189   5.201  22.938  0.00  0.00    +0.000 OA
ATOM     22  C   UNL     1      18.202   5.405  22.268  0.00  0.00    +0.000 C 
BRANCH  22  23
ATOM     23  O   UNL     1      18.122   5.394  20.925  0.00  0.00    +0.000 OA
ATOM     24  H   UNL     1      16.063   3.364  21.984  0.00  0.00    +0.000 HD
ENDBRANCH  22  23
ENDBRANCH   6  22
BRANCH   4  25
ATOM     25  CA  UNL     1      14.497   7.964  22.192  0.00  0.00    +0.000 C 
BRANCH  25  27
ATOM     26  O   UNL     1      16.192  10.375  22.098  0.00  0.00    +0.000 OA
ATOM     27  N   UNL     1      15.271   8.463  21.088  0.00  0.00    +0.000 N 
ATOM     28  C   UNL     1      16.034   9.612  21.159  0.00  0.00    +0.000 C 
ATOM     29  H   UNL     1      15.083   8.497  18.055  0.00  0.00    +0.000 HD
BRANCH  28  31
ATOM     30  N   UNL     1      16.208  10.723  18.999  0.00  0.00    +0.000 NA
ATOM     31  C   UNL     1      16.744   9.918  19.866  0.00  0.00    +0.000 C 
BRANCH  31  36
ATOM     32  S   UNL     1      19.750   7.771  18.796  0.00  0.00    +0.000 S 
ATOM     33  N   UNL     1      19.215   9.854  20.134  0.00  0.00    +0.000 NA
ATOM     34  N   UNL     1      18.129   8.180  18.868  0.00  0.00    +0.000 NA
ATOM     35  N   UNL     1      21.534   9.319  20.064  0.00  0.00    +0.000 N 
ATOM     36  C   UNL     1      18.067   9.287  19.607  0.00  0.00    +0.000 A 
ATOM     37  C   UNL     1      20.230   9.108  19.758  0.00  0.00    +0.000 A 
ATOM     38  H   UNL     1      18.095   9.006  22.190  0.00  0.00    +0.000 HD
ATOM     39  H   UNL     1      18.095   9.006  22.190  0.00  0.00    +0.000 HD
ENDBRANCH  31  36
BRANCH  30  40
ATOM     40  O   UNL     1      17.020  10.883  17.871  0.00  0.00    +0.000 OA
ATOM     41  H   UNL     1      18.966  11.373  20.868  0.00  0.00    +0.000 HD
ENDBRANCH  30  40
ENDBRANCH  28  31
ENDBRANCH  25  27
BRANCH  25  43
ATOM     42  OXT UNL     1      13.456   9.690  23.554  0.00  0.00    +0.000 OA
ATOM     43  C   UNL     1      13.464   9.014  22.533  0.00  0.00    +0.000 C 
BRANCH  43  44
ATOM     44  O   UNL     1      12.493   9.099  21.585  0.00  0.00    +0.000 OA
ATOM     45  H   UNL     1      17.915   7.371  24.580  0.00  0.00    +0.000 HD
ENDBRANCH  43  44
ENDBRANCH  25  43
ENDBRANCH   4  25
TORSDOF 11
ENDMDL
MODEL 2
REMARK minimizedAffinity -8.04441357
REMARK minimizedRMSD -1
REMARK  Name = 170454212
REMARK  11 active torsions:
REMARK  status: ('A' for Active; 'I' for Inactive)
REMARK    1  A    between atoms: O_4  and  C_32
REMARK    2  A    between atoms: O_5  and  C_33
REMARK    3  A    between atoms: O_9  and  N_14
REMARK    4  A    between atoms: N_10  and  C_18
REMARK    5  A    between atoms: N_13  and  CA_31
REMARK    6  A    between atoms: C_26  and  C_27
REMARK    7  A    between atoms: C_28  and  CA_31
REMARK    8  A    between atoms: CA_30  and  C_32
REMARK    9  A    between atoms: CA_31  and  C_33
REMARK   10  A    between atoms: C_34  and  C_35
REMARK   11  A    between atoms: C_35  and  C_36
REMARK                            x       y       z     vdW  Elec       q    Type
REMARK                         _______ _______ _______ _____ _____    ______ ____
ROOT
ATOM      1  S   UNL     1      13.557   5.466  22.841  0.00  0.00    +0.000 S 
ATOM      2  N   UNL     1      15.947   6.560  23.481  0.00  0.00    +0.000 N 
ATOM      3  C   UNL     1      16.114   4.568  22.115  0.00  0.00    +0.000 C 
ATOM      4  C   UNL     1      14.581   6.931  23.173  0.00  0.00    +0.000 C 
ATOM      5  C   UNL     1      14.661   4.608  21.679  0.00  0.00    +0.000 C 
ATOM      6  CA  UNL     1      16.642   5.492  22.951  0.00  0.00    +0.000 C 
ATOM      7  H   UNL     1      17.455   5.272  20.468  0.00  0.00    +0.000 HD
ENDROOT
BRANCH   3  14
ATOM      8  O   UNL     1      18.369   1.317  20.270  0.00  0.00    +0.000 OA
ATOM      9  N   UNL     1      18.670   2.870  18.527  0.00  0.00    +0.000 N 
ATOM     10  C   UNL     1      18.249   4.219  18.215  0.00  0.00    +0.000 C 
ATOM     11  C   UNL     1      17.608   4.762  19.483  0.00  0.00    +0.000 C 
ATOM     12  C   UNL     1      18.220   2.414  19.757  0.00  0.00    +0.000 C 
ATOM     13  C   UNL     1      17.494   3.559  20.363  0.00  0.00    +0.000 C 
ATOM     14  C   UNL     1      16.838   3.461  21.521  0.00  0.00    +0.000 C 
BRANCH   9  16
ATOM     15  N   UNL     1      19.382   0.793  15.637  0.00  0.00    +0.000 NA
ATOM     16  C   UNL     1      19.405   2.086  17.579  0.00  0.00    +0.000 C 
ATOM     17  C   UNL     1      20.096   2.918  16.509  0.00  0.00    +0.000 C 
ATOM     18  C   UNL     1      18.524   1.151  16.773  0.00  0.00    +0.000 C 
ATOM     19  C   UNL     1      20.074   2.036  15.265  0.00  0.00    +0.000 C 
ATOM     20  H   UNL     1      16.302   3.608  20.967  0.00  0.00    +0.000 HD
ENDBRANCH   9  16
ENDBRANCH   3  14
BRANCH   6  22
ATOM     21  OXT UNL     1      18.460   4.785  24.310  0.00  0.00    +0.000 OA
ATOM     22  C   UNL     1      18.057   5.434  23.372  0.00  0.00    +0.000 C 
BRANCH  22  23
ATOM     23  O   UNL     1      18.792   6.207  22.550  0.00  0.00    +0.000 OA
ATOM     24  H   UNL     1      17.312   4.153  20.798  0.00  0.00    +0.000 HD
ENDBRANCH  22  23
ENDBRANCH   6  22
BRANCH   4  25
ATOM     25  CA  UNL     1      14.553   7.909  22.005  0.00  0.00    +0.000 C 
BRANCH  25  27
ATOM     26  O   UNL     1      15.386   9.588  19.728  0.00  0.00    +0.000 OA
ATOM     27  N   UNL     1      15.870   8.392  21.693  0.00  0.00    +0.000 N 
ATOM     28  C   UNL     1      16.145   9.178  20.591  0.00  0.00    +0.000 C 
ATOM     29  H   UNL     1      18.739   7.447  22.025  0.00  0.00    +0.000 HD
BRANCH  28  31
ATOM     30  N   UNL     1      18.227  10.034  21.519  0.00  0.00    +0.000 NA
ATOM     31  C   UNL     1      17.602   9.547  20.490  0.00  0.00    +0.000 C 
BRANCH  31  36
ATOM     32  S   UNL     1      19.286   9.759  17.038  0.00  0.00    +0.000 S 
ATOM     33  N   UNL     1      18.796   8.083  18.873  0.00  0.00    +0.000 NA
ATOM     34  N   UNL     1      18.461  10.365  18.362  0.00  0.00    +0.000 NA
ATOM     35  N   UNL     1      19.970   7.167  17.016  0.00  0.00    +0.000 N 
ATOM     36  C   UNL     1      18.307   9.337  19.196  0.00  0.00    +0.000 A 
ATOM     37  C   UNL     1      19.367   8.174  17.693  0.00  0.00    +0.000 A 
ATOM     38  H   UNL     1      16.338   7.707  18.736  0.00  0.00    +0.000 HD
ATOM     39  H   UNL     1      16.338   7.707  18.736  0.00  0.00    +0.000 HD
ENDBRANCH  31  36
BRANCH  30  40
ATOM     40  O   UNL     1      19.568  10.307  21.229  0.00  0.00    +0.000 OA
ATOM     41  H   UNL     1      18.733   6.964  20.163  0.00  0.00    +0.000 HD
ENDBRANCH  30  40
ENDBRANCH  28  31
ENDBRANCH  25  27
BRANCH  25  43
ATOM     42  OXT UNL     1      13.908   9.898  23.249  0.00  0.00    +0.000 OA
ATOM     43  C   UNL     1      13.695   9.110  22.336  0.00  0.00    +0.000 C 
BRANCH  43  44
ATOM     44  O   UNL     1      12.611   9.200  21.522  0.00  0.00    +0.000 OA
ATOM     45  H   UNL     1      18.203   7.190  23.978  0.00  0.00    +0.000 HD
ENDBRANCH  43  44
ENDBRANCH  25  43
ENDBRANCH   4  25
TORSDOF 11
ENDMDL
MODEL 3
REMARK minimizedAffinity -7.93313217
REMARK minimizedRMSD -1
REMARK  Name = 170454212
REMARK  11 active torsions:
REMARK  status: ('A' for Active; 'I' for Inactive)
REMARK    1  A    between atoms: O_4  and  C_32
REMARK    2  A    between atoms: O_5  and  C_33
REMARK    3  A    between atoms: O_9  and  N_14
REMARK    4  A    between atoms: N_10  and  C_18
REMARK    5  A    between atoms: N_13  and  CA_31
REMARK    6  A    between atoms: C_26  and  C_27
REMARK    7  A    between atoms: C_28  and  CA_31
REMARK    8  A    between atoms: CA_30  and  C_32
REMARK    9  A    between atoms: CA_31  and  C_33
REMARK   10  A    between atoms: C_34  and  C_35
REMARK   11  A    between atoms: C_35  and  C_36
REMARK                            x       y       z     vdW  Elec       q    Type
REMARK                         _______ _______ _______ _____ _____    ______ ____
ROOT
ATOM      1  S   UNL     1      15.161   7.110  24.655  0.00  0.00    +0.000 S 
ATOM      2  N   UNL     1      15.513   5.942  22.240  0.00  0.00    +0.000 N 
ATOM      3  C   UNL     1      13.684   5.009  23.524  0.00  0.00    +0.000 C 
ATOM      4  C   UNL     1      15.620   7.226  22.899  0.00  0.00    +0.000 C 
ATOM      5  C   UNL     1      13.605   6.186  24.478  0.00  0.00    +0.000 C 
ATOM      6  CA  UNL     1      14.589   4.954  22.519  0.00  0.00    +0.000 C 
ATOM      7  H   UNL     1      12.015   5.084  22.034  0.00  0.00    +0.000 HD
ENDROOT
BRANCH   3  14
ATOM      8  O   UNL     1      10.609   2.004  24.280  0.00  0.00    +0.000 OA
ATOM      9  N   UNL     1       9.192   3.582  23.258  0.00  0.00    +0.000 N 
ATOM     10  C   UNL     1       9.300   4.917  22.711  0.00  0.00    +0.000 C 
ATOM     11  C   UNL     1      10.788   5.226  22.650  0.00  0.00    +0.000 C 
ATOM     12  C   UNL     1      10.392   3.070  23.728  0.00  0.00    +0.000 C 
ATOM     13  C   UNL     1      11.412   4.105  23.417  0.00  0.00    +0.000 C 
ATOM     14  C   UNL     1      12.683   3.999  23.809  0.00  0.00    +0.000 C 
BRANCH   9  16
ATOM     15  N   UNL     1       5.840   2.806  24.416  0.00  0.00    +0.000 NA
ATOM     16  C   UNL     1       7.921   2.928  23.368  0.00  0.00    +0.000 C 
ATOM     17  C   UNL     1       6.904   3.403  22.342  0.00  0.00    +0.000 C 
ATOM     18  C   UNL     1       7.229   3.195  24.691  0.00  0.00    +0.000 C 
ATOM     19  C   UNL     1       5.560   3.294  23.057  0.00  0.00    +0.000 C 
ATOM     20  H   UNL     1      12.323   4.746  24.232  0.00  0.00    +0.000 HD
ENDBRANCH   9  16
ENDBRANCH   3  14
BRANCH   6  22
ATOM     21  OXT UNL     1      15.251   2.772  21.847  0.00  0.00    +0.000 OA
ATOM     22  C   UNL     1      14.657   3.798  21.602  0.00  0.00    +0.000 C 
BRANCH  22  23
ATOM     23  O   UNL     1      13.962   4.080  20.485  0.00  0.00    +0.000 OA
ATOM     24  H   UNL     1      12.045   4.423  22.870  0.00  0.00    +0.000 HD
ENDBRANCH  22  23
ENDBRANCH   6  22
BRANCH   4  25
ATOM     25  CA  UNL     1      14.774   8.263  22.169  0.00  0.00    +0.000 C 
BRANCH  25  27
ATOM     26  O   UNL     1      17.636   8.880  21.815  0.00  0.00    +0.000 OA
ATOM     27  N   UNL     1      15.439   8.747  20.991  0.00  0.00    +0.000 N 
ATOM     28  C   UNL     1      16.795   9.004  20.940  0.00  0.00    +0.000 C 
ATOM     29  H   UNL     1      14.779  10.529  18.619  0.00  0.00    +0.000 HD
BRANCH  28  31
ATOM     30  N   UNL     1      16.495  10.328  18.919  0.00  0.00    +0.000 NA
ATOM     31  C   UNL     1      17.241   9.505  19.592  0.00  0.00    +0.000 C 
BRANCH  31  36
ATOM     32  S   UNL     1      20.894   8.971  18.509  0.00  0.00    +0.000 S 
ATOM     33  N   UNL     1      18.627   7.850  18.357  0.00  0.00    +0.000 NA
ATOM     34  N   UNL     1      19.635   9.794  19.244  0.00  0.00    +0.000 NA
ATOM     35  N   UNL     1      20.379   6.637  17.296  0.00  0.00    +0.000 N 
ATOM     36  C   UNL     1      18.550   9.046  19.051  0.00  0.00    +0.000 A 
ATOM     37  C   UNL     1      19.880   7.685  17.996  0.00  0.00    +0.000 A 
ATOM     38  H   UNL     1      17.336   9.264  16.765  0.00  0.00    +0.000 HD
ATOM     39  H   UNL     1      17.336   9.264  16.765  0.00  0.00    +0.000 HD
ENDBRANCH  31  36
BRANCH  30  40
ATOM     40  O   UNL     1      17.081  10.681  17.699  0.00  0.00    +0.000 OA
ATOM     41  H   UNL     1      19.466  11.085  20.375  0.00  0.00    +0.000 HD
ENDBRANCH  30  40
ENDBRANCH  28  31
ENDBRANCH  25  27
BRANCH  25  43
ATOM     42  OXT UNL     1      15.354  10.248  23.451  0.00  0.00    +0.000 OA
ATOM     43  C   UNL     1      14.506   9.454  23.061  0.00  0.00    +0.000 C 
BRANCH  43  44
ATOM     44  O   UNL     1      13.200   9.530  23.430  0.00  0.00    +0.000 OA
ATOM     45  H   UNL     1      18.564   7.594  20.458  0.00  0.00    +0.000 HD
ENDBRANCH  43  44
ENDBRANCH  25  43
ENDBRANCH   4  25
TORSDOF 11
ENDMDL
MODEL 4
REMARK minimizedAffinity -7.91339159
REMARK minimizedRMSD -1
REMARK  Name = 170454212
REMARK  11 active torsions:
REMARK  status: ('A' for Active; 'I' for Inactive)
REMARK    1  A    between atoms: O_4  and  C_32
REMARK    2  A    between atoms: O_5  and  C_33
REMARK    3  A    between atoms: O_9  and  N_14
REMARK    4  A    between atoms: N_10  and  C_18
REMARK    5  A    between atoms: N_13  and  CA_31
REMARK    6  A    between atoms: C_26  and  C_27
REMARK    7  A    between atoms: C_28  and  CA_31
REMARK    8  A    between atoms: CA_30  and  C_32
REMARK    9  A    between atoms: CA_31  and  C_33
REMARK   10  A    between atoms: C_34  and  C_35
REMARK   11  A    between atoms: C_35  and  C_36
REMARK                            x       y       z     vdW  Elec       q    Type
REMARK                         _______ _______ _______ _____ _____    ______ ____
ROOT
ATOM      1  S   UNL     1      16.521  10.089  22.378  0.00  0.00    +0.000 S 
ATOM      2  N   UNL     1      18.100   7.932  21.957  0.00  0.00    +0.000 N 
ATOM      3  C   UNL     1      15.980   7.407  23.003  0.00  0.00    +0.000 C 
ATOM      4  C   UNL     1      17.752   9.209  21.369  0.00  0.00    +0.000 C 
ATOM      5  C   UNL     1      15.339   8.730  22.628  0.00  0.00    +0.000 C 
ATOM      6  CA  UNL     1      17.256   7.104  22.670  0.00  0.00    +0.000 C 
ATOM      7  H   UNL     1      15.231   5.762  21.682  0.00  0.00    +0.000 HD
ENDROOT
BRANCH   3  14
ATOM      8  O   UNL     1      13.257   4.695  25.073  0.00  0.00    +0.000 OA
ATOM      9  N   UNL     1      12.825   3.897  22.901  0.00  0.00    +0.000 N 
ATOM     10  C   UNL     1      13.230   4.210  21.549  0.00  0.00    +0.000 C 
ATOM     11  C   UNL     1      14.379   5.201  21.674  0.00  0.00    +0.000 C 
ATOM     12  C   UNL     1      13.429   4.689  23.865  0.00  0.00    +0.000 C 
ATOM     13  C   UNL     1      14.370   5.567  23.124  0.00  0.00    +0.000 C 
ATOM     14  C   UNL     1      15.069   6.536  23.719  0.00  0.00    +0.000 C 
BRANCH   9  16
ATOM     15  N   UNL     1       9.553   2.348  23.173  0.00  0.00    +0.000 NA
ATOM     16  C   UNL     1      11.817   2.911  23.162  0.00  0.00    +0.000 C 
ATOM     17  C   UNL     1      11.622   1.926  22.019  0.00  0.00    +0.000 C 
ATOM     18  C   UNL     1      10.435   3.509  23.343  0.00  0.00    +0.000 C 
ATOM     19  C   UNL     1      10.138   1.573  22.069  0.00  0.00    +0.000 C 
ATOM     20  H   UNL     1      14.572   6.891  23.202  0.00  0.00    +0.000 HD
ENDBRANCH   9  16
ENDBRANCH   3  14
BRANCH   6  22
ATOM     21  OXT UNL     1      17.965   5.417  24.188  0.00  0.00    +0.000 OA
ATOM     22  C   UNL     1      17.868   5.813  23.049  0.00  0.00    +0.000 C 
BRANCH  22  23
ATOM     23  O   UNL     1      18.282   5.179  21.936  0.00  0.00    +0.000 OA
ATOM     24  H   UNL     1      15.277   5.759  21.598  0.00  0.00    +0.000 HD
ENDBRANCH  22  23
ENDBRANCH   6  22
BRANCH   4  25
ATOM     25  CA  UNL     1      17.263   9.013  19.939  0.00  0.00    +0.000 C 
BRANCH  25  27
ATOM     26  O   UNL     1      18.364   6.492  18.878  0.00  0.00    +0.000 OA
ATOM     27  N   UNL     1      18.361   8.837  19.029  0.00  0.00    +0.000 N 
ATOM     28  C   UNL     1      18.794   7.599  18.597  0.00  0.00    +0.000 C 
ATOM     29  H   UNL     1      20.983  10.233  18.386  0.00  0.00    +0.000 HD
BRANCH  28  31
ATOM     30  N   UNL     1      19.765   7.737  16.368  0.00  0.00    +0.000 NA
ATOM     31  C   UNL     1      19.962   7.689  17.651  0.00  0.00    +0.000 C 
BRANCH  31  36
ATOM     32  S   UNL     1      23.460   7.018  19.103  0.00  0.00    +0.000 S 
ATOM     33  N   UNL     1      21.962   8.946  18.426  0.00  0.00    +0.000 NA
ATOM     34  N   UNL     1      21.959   6.584  18.504  0.00  0.00    +0.000 NA
ATOM     35  N   UNL     1      24.084   9.620  19.271  0.00  0.00    +0.000 N 
ATOM     36  C   UNL     1      21.340   7.727  18.213  0.00  0.00    +0.000 A 
ATOM     37  C   UNL     1      23.154   8.697  18.922  0.00  0.00    +0.000 A 
ATOM     38  H   UNL     1      20.179   8.991  20.164  0.00  0.00    +0.000 HD
ATOM     39  H   UNL     1      20.179   8.991  20.164  0.00  0.00    +0.000 HD
ENDBRANCH  31  36
BRANCH  30  40
ATOM     40  O   UNL     1      20.968   7.824  15.661  0.00  0.00    +0.000 OA
ATOM     41  H   UNL     1      20.906  10.287  18.295  0.00  0.00    +0.000 HD
ENDBRANCH  30  40
ENDBRANCH  28  31
ENDBRANCH  25  27
BRANCH  25  43
ATOM     42  OXT UNL     1      15.257  10.277  19.392  0.00  0.00    +0.000 OA
ATOM     43  C   UNL     1      16.478  10.219  19.475  0.00  0.00    +0.000 C 
BRANCH  43  44
ATOM     44  O   UNL     1      17.291  11.245  19.107  0.00  0.00    +0.000 OA
ATOM     45  H   UNL     1      15.350   5.585  21.463  0.00  0.00    +0.000 HD
ENDBRANCH  43  44
ENDBRANCH  25  43
ENDBRANCH   4  25
TORSDOF 11
ENDMDL
MODEL 5
REMARK minimizedAffinity -7.86836767
REMARK minimizedRMSD -1
REMARK  Name = 170454212
REMARK  11 active torsions:
REMARK  status: ('A' for Active; 'I' for Inactive)
REMARK    1  A    between atoms: O_4  and  C_32
REMARK    2  A    between atoms: O_5  and  C_33
REMARK    3  A    between atoms: O_9  and  N_14
REMARK    4  A    between atoms: N_10  and  C_18
REMARK    5  A    between atoms: N_13  and  CA_31
REMARK    6  A    between atoms: C_26  and  C_27
REMARK    7  A    between atoms: C_28  and  CA_31
REMARK    8  A    between atoms: CA_30  and  C_32
REMARK    9  A    between atoms: CA_31  and  C_33
REMARK   10  A    between atoms: C_34  and  C_35
REMARK   11  A    between atoms: C_35  and  C_36
REMARK                            x       y       z     vdW  Elec       q    Type
REMARK                         _______ _______ _______ _____ _____    ______ ____
ROOT
ATOM      1  S   UNL     1      16.930   9.834  21.350  0.00  0.00    +0.000 S 
ATOM      2  N   UNL     1      18.766   7.862  21.102  0.00  0.00    +0.000 N 
ATOM      3  C   UNL     1      16.493   7.062  21.346  0.00  0.00    +0.000 C 
ATOM      4  C   UNL     1      18.484   9.207  20.645  0.00  0.00    +0.000 C 
ATOM      5  C   UNL     1      15.866   8.400  21.005  0.00  0.00    +0.000 C 
ATOM      6  CA  UNL     1      17.834   6.882  21.380  0.00  0.00    +0.000 C 
ATOM      7  H   UNL     1      16.334   5.649  19.617  0.00  0.00    +0.000 HD
ENDROOT
BRANCH   3  14
ATOM      8  O   UNL     1      13.467   4.037  22.209  0.00  0.00    +0.000 OA
ATOM      9  N   UNL     1      13.867   4.655  24.444  0.00  0.00    +0.000 N 
ATOM     10  C   UNL     1      14.742   5.557  25.162  0.00  0.00    +0.000 C 
ATOM     11  C   UNL     1      15.405   6.427  24.105  0.00  0.00    +0.000 C 
ATOM     12  C   UNL     1      14.021   4.703  23.067  0.00  0.00    +0.000 C 
ATOM     13  C   UNL     1      15.027   5.766  22.818  0.00  0.00    +0.000 C 
ATOM     14  C   UNL     1      15.501   6.036  21.599  0.00  0.00    +0.000 C 
BRANCH   9  16
ATOM     15  N   UNL     1      12.726   1.663  26.154  0.00  0.00    +0.000 NA
ATOM     16  C   UNL     1      13.006   3.747  25.143  0.00  0.00    +0.000 C 
ATOM     17  C   UNL     1      12.933   4.010  26.640  0.00  0.00    +0.000 C 
ATOM     18  C   UNL     1      13.475   2.307  25.068  0.00  0.00    +0.000 C 
ATOM     19  C   UNL     1      12.736   2.631  27.261  0.00  0.00    +0.000 C 
ATOM     20  H   UNL     1      15.923   5.853  21.906  0.00  0.00    +0.000 HD
ENDBRANCH   9  16
ENDBRANCH   3  14
BRANCH   6  22
ATOM     21  OXT UNL     1      18.646   4.696  20.915  0.00  0.00    +0.000 OA
ATOM     22  C   UNL     1      18.430   5.573  21.720  0.00  0.00    +0.000 C 
BRANCH  22  23
ATOM     23  O   UNL     1      18.680   5.534  23.042  0.00  0.00    +0.000 OA
ATOM     24  H   UNL     1      20.157   7.983  21.899  0.00  0.00    +0.000 HD
ENDBRANCH  22  23
ENDBRANCH   6  22
BRANCH   4  25
ATOM     25  CA  UNL     1      18.462   9.250  19.121  0.00  0.00    +0.000 C 
BRANCH  25  27
ATOM     26  O   UNL     1      18.987   7.437  16.856  0.00  0.00    +0.000 OA
ATOM     27  N   UNL     1      19.731   8.865  18.567  0.00  0.00    +0.000 N 
ATOM     28  C   UNL     1      19.858   8.001  17.497  0.00  0.00    +0.000 C 
ATOM     29  H   UNL     1      22.566   8.411  19.566  0.00  0.00    +0.000 HD
BRANCH  28  31
ATOM     30  N   UNL     1      21.595   7.367  15.913  0.00  0.00    +0.000 NA
ATOM     31  C   UNL     1      21.294   7.758  17.114  0.00  0.00    +0.000 C 
BRANCH  31  36
ATOM     32  S   UNL     1      23.845   7.625  19.990  0.00  0.00    +0.000 S 
ATOM     33  N   UNL     1      23.066   9.170  18.139  0.00  0.00    +0.000 NA
ATOM     34  N   UNL     1      22.613   7.028  19.028  0.00  0.00    +0.000 NA
ATOM     35  N   UNL     1      24.819  10.070  19.475  0.00  0.00    +0.000 N 
ATOM     36  C   UNL     1      22.356   7.981  18.132  0.00  0.00    +0.000 A 
ATOM     37  C   UNL     1      23.931   9.107  19.127  0.00  0.00    +0.000 A 
ATOM     38  H   UNL     1      20.812   9.935  18.872  0.00  0.00    +0.000 HD
ATOM     39  H   UNL     1      20.812   9.935  18.872  0.00  0.00    +0.000 HD
ENDBRANCH  31  36
BRANCH  30  40
ATOM     40  O   UNL     1      22.974   7.202  15.751  0.00  0.00    +0.000 OA
ATOM     41  H   UNL     1      22.282  10.417  17.233  0.00  0.00    +0.000 HD
ENDBRANCH  30  40
ENDBRANCH  28  31
ENDBRANCH  25  27
BRANCH  25  43
ATOM     42  OXT UNL     1      18.781  11.656  18.948  0.00  0.00    +0.000 OA
ATOM     43  C   UNL     1      18.160  10.648  18.633  0.00  0.00    +0.000 C 
BRANCH  43  44
ATOM     44  O   UNL     1      17.070  10.679  17.820  0.00  0.00    +0.000 OA
ATOM     45  H   UNL     1      21.861   8.417  21.465  0.00  0.00    +0.000 HD
ENDBRANCH  43  44
ENDBRANCH  25  43
ENDBRANCH   4  25
TORSDOF 11
ENDMDL
MODEL 6
REMARK minimizedAffinity -7.7278924
REMARK minimizedRMSD -1
REMARK  Name = 170454212
REMARK  11 active torsions:
REMARK  status: ('A' for Active; 'I' for Inactive)
REMARK    1  A    between atoms: O_4  and  C_32
REMARK    2  A    between atoms: O_5  and  C_33
REMARK    3  A    between atoms: O_9  and  N_14
REMARK    4  A    between atoms: N_10  and  C_18
REMARK    5  A    between atoms: N_13  and  CA_31
REMARK    6  A    between atoms: C_26  and  C_27
REMARK    7  A    between atoms: C_28  and  CA_31
REMARK    8  A    between atoms: CA_30  and  C_32
REMARK    9  A    between atoms: CA_31  and  C_33
REMARK   10  A    between atoms: C_34  and  C_35
REMARK   11  A    between atoms: C_35  and  C_36
REMARK                            x       y       z     vdW  Elec       q    Type
REMARK                         _______ _______ _______ _____ _____    ______ ____
ROOT
ATOM      1  S   UNL     1      18.986   9.077  18.001  0.00  0.00    +0.000 S 
ATOM      2  N   UNL     1      18.740   7.389  20.101  0.00  0.00    +0.000 N 
ATOM      3  C   UNL     1      20.940   8.378  19.890  0.00  0.00    +0.000 C 
ATOM      4  C   UNL     1      17.983   8.357  19.336  0.00  0.00    +0.000 C 
ATOM      5  C   UNL     1      20.477   9.483  18.958  0.00  0.00    +0.000 C 
ATOM      6  CA  UNL     1      20.092   7.442  20.375  0.00  0.00    +0.000 C 
ATOM      7  H   UNL     1      21.269   9.171  21.957  0.00  0.00    +0.000 HD
ENDROOT
BRANCH   3  14
ATOM      8  O   UNL     1      25.220   8.693  20.692  0.00  0.00    +0.000 OA
ATOM      9  N   UNL     1      25.419   8.082  18.427  0.00  0.00    +0.000 N 
ATOM     10  C   UNL     1      24.539   7.721  17.337  0.00  0.00    +0.000 C 
ATOM     11  C   UNL     1      23.128   8.028  17.819  0.00  0.00    +0.000 C 
ATOM     12  C   UNL     1      24.755   8.400  19.602  0.00  0.00    +0.000 C 
ATOM     13  C   UNL     1      23.309   8.316  19.275  0.00  0.00    +0.000 C 
ATOM     14  C   UNL     1      22.355   8.470  20.195  0.00  0.00    +0.000 C 
BRANCH   9  16
ATOM     15  N   UNL     1      28.677   7.647  16.886  0.00  0.00    +0.000 NA
ATOM     16  C   UNL     1      26.844   8.011  18.282  0.00  0.00    +0.000 C 
ATOM     17  C   UNL     1      27.502   9.369  18.088  0.00  0.00    +0.000 C 
ATOM     18  C   UNL     1      27.277   7.237  17.052  0.00  0.00    +0.000 C 
ATOM     19  C   UNL     1      28.700   9.087  17.185  0.00  0.00    +0.000 C 
ATOM     20  H   UNL     1      22.110   7.007  18.400  0.00  0.00    +0.000 HD
ENDBRANCH   9  16
ENDBRANCH   3  14
BRANCH   6  22
ATOM     21  OXT UNL     1      21.608   5.777  21.140  0.00  0.00    +0.000 OA
ATOM     22  C   UNL     1      20.560   6.368  21.276  0.00  0.00    +0.000 C 
BRANCH  22  23
ATOM     23  O   UNL     1      19.645   6.174  22.243  0.00  0.00    +0.000 OA
ATOM     24  H   UNL     1      20.466   9.140  22.338  0.00  0.00    +0.000 HD
ENDBRANCH  22  23
ENDBRANCH   6  22
BRANCH   4  25
ATOM     25  CA  UNL     1      17.424   9.434  20.258  0.00  0.00    +0.000 C 
BRANCH  25  27
ATOM     26  O   UNL     1      16.211  10.675  22.642  0.00  0.00    +0.000 OA
ATOM     27  N   UNL     1      16.368   8.921  21.085  0.00  0.00    +0.000 N 
ATOM     28  C   UNL     1      15.875   9.594  22.187  0.00  0.00    +0.000 C 
ATOM     29  H   UNL     1      15.364   6.204  22.008  0.00  0.00    +0.000 HD
BRANCH  28  31
ATOM     30  N   UNL     1      13.774   9.478  23.411  0.00  0.00    +0.000 NA
ATOM     31  C   UNL     1      14.774   8.839  22.883  0.00  0.00    +0.000 C 
BRANCH  31  36
ATOM     32  S   UNL     1      15.475   5.132  23.631  0.00  0.00    +0.000 S 
ATOM     33  N   UNL     1      14.099   6.586  22.078  0.00  0.00    +0.000 NA
ATOM     34  N   UNL     1      15.647   6.782  23.852  0.00  0.00    +0.000 NA
ATOM     35  N   UNL     1      13.816   4.249  21.719  0.00  0.00    +0.000 N 
ATOM     36  C   UNL     1      14.852   7.354  22.950  0.00  0.00    +0.000 A 
ATOM     37  C   UNL     1      14.352   5.324  22.347  0.00  0.00    +0.000 A 
ATOM     38  H   UNL     1      15.767   7.599  20.531  0.00  0.00    +0.000 HD
ATOM     39  H   UNL     1      15.767   7.599  20.531  0.00  0.00    +0.000 HD
ENDBRANCH  31  36
BRANCH  30  40
ATOM     40  O   UNL     1      12.856   8.606  24.004  0.00  0.00    +0.000 OA
ATOM     41  H   UNL     1      13.630   7.493  20.662  0.00  0.00    +0.000 HD
ENDBRANCH  30  40
ENDBRANCH  28  31
ENDBRANCH  25  27
BRANCH  25  43
ATOM     42  OXT UNL     1      17.476  11.578  19.107  0.00  0.00    +0.000 OA
ATOM     43  C   UNL     1      16.854  10.580  19.453  0.00  0.00    +0.000 C 
BRANCH  43  44
ATOM     44  O   UNL     1      15.534  10.405  19.183  0.00  0.00    +0.000 OA
ATOM     45  H   UNL     1      21.522   9.225  21.208  0.00  0.00    +0.000 HD
ENDBRANCH  43  44
ENDBRANCH  25  43
ENDBRANCH   4  25
TORSDOF 11
ENDMDL
MODEL 7
REMARK minimizedAffinity -7.64626932
REMARK minimizedRMSD -1
REMARK  Name = 170454212
REMARK  11 active torsions:
REMARK  status: ('A' for Active; 'I' for Inactive)
REMARK    1  A    between atoms: O_4  and  C_32
REMARK    2  A    between atoms: O_5  and  C_33
REMARK    3  A    between atoms: O_9  and  N_14
REMARK    4  A    between atoms: N_10  and  C_18
REMARK    5  A    between atoms: N_13  and  CA_31
REMARK    6  A    between atoms: C_26  and  C_27
REMARK    7  A    between atoms: C_28  and  CA_31
REMARK    8  A    between atoms: CA_30  and  C_32
REMARK    9  A    between atoms: CA_31  and  C_33
REMARK   10  A    between atoms: C_34  and  C_35
REMARK   11  A    between atoms: C_35  and  C_36
REMARK                            x       y       z     vdW  Elec       q    Type
REMARK                         _______ _______ _______ _____ _____    ______ ____
ROOT
ATOM      1  S   UNL     1      14.734   2.239  22.461  0.00  0.00    +0.000 S 
ATOM      2  N   UNL     1      14.060   4.662  23.457  0.00  0.00    +0.000 N 
ATOM      3  C   UNL     1      15.326   3.286  24.996  0.00  0.00    +0.000 C 
ATOM      4  C   UNL     1      14.432   4.015  22.216  0.00  0.00    +0.000 C 
ATOM      5  C   UNL     1      15.815   2.335  23.920  0.00  0.00    +0.000 C 
ATOM      6  CA  UNL     1      14.515   4.334  24.719  0.00  0.00    +0.000 C 
ATOM      7  H   UNL     1      16.955   4.693  25.609  0.00  0.00    +0.000 HD
ENDROOT
BRANCH   3  14
ATOM      8  O   UNL     1      16.936   2.379  28.950  0.00  0.00    +0.000 OA
ATOM      9  N   UNL     1      18.717   3.748  28.247  0.00  0.00    +0.000 N 
ATOM     10  C   UNL     1      19.099   4.475  27.056  0.00  0.00    +0.000 C 
ATOM     11  C   UNL     1      17.885   4.444  26.139  0.00  0.00    +0.000 C 
ATOM     12  C   UNL     1      17.496   3.100  28.141  0.00  0.00    +0.000 C 
ATOM     13  C   UNL     1      16.969   3.465  26.801  0.00  0.00    +0.000 C 
ATOM     14  C   UNL     1      15.842   2.947  26.308  0.00  0.00    +0.000 C 
BRANCH   9  16
ATOM     15  N   UNL     1      21.722   4.041  30.263  0.00  0.00    +0.000 NA
ATOM     16  C   UNL     1      19.599   3.660  29.374  0.00  0.00    +0.000 C 
ATOM     17  C   UNL     1      19.444   4.811  30.357  0.00  0.00    +0.000 C 
ATOM     18  C   UNL     1      21.064   3.729  28.989  0.00  0.00    +0.000 C 
ATOM     19  C   UNL     1      20.845   5.018  30.925  0.00  0.00    +0.000 C 
ATOM     20  H   UNL     1      17.510   3.173  25.035  0.00  0.00    +0.000 HD
ENDBRANCH   9  16
ENDBRANCH   3  14
BRANCH   6  22
ATOM     21  OXT UNL     1      13.082   5.030  26.483  0.00  0.00    +0.000 OA
ATOM     22  C   UNL     1      14.042   5.247  25.779  0.00  0.00    +0.000 C 
BRANCH  22  23
ATOM     23  O   UNL     1      14.845   6.326  25.821  0.00  0.00    +0.000 OA
ATOM     24  H   UNL     1      16.626   3.842  26.194  0.00  0.00    +0.000 HD
ENDBRANCH  22  23
ENDBRANCH   6  22
BRANCH   4  25
ATOM     25  CA  UNL     1      15.645   4.708  21.606  0.00  0.00    +0.000 C 
BRANCH  25  27
ATOM     26  O   UNL     1      17.259   6.468  23.336  0.00  0.00    +0.000 OA
ATOM     27  N   UNL     1      15.560   6.136  21.747  0.00  0.00    +0.000 N 
ATOM     28  C   UNL     1      16.373   6.861  22.594  0.00  0.00    +0.000 C 
ATOM     29  H   UNL     1      13.405   8.275  21.607  0.00  0.00    +0.000 HD
BRANCH  28  31
ATOM     30  N   UNL     1      15.402   8.895  23.516  0.00  0.00    +0.000 NA
ATOM     31  C   UNL     1      16.079   8.338  22.558  0.00  0.00    +0.000 C 
BRANCH  31  36
ATOM     32  S   UNL     1      16.640  10.410  19.366  0.00  0.00    +0.000 S 
ATOM     33  N   UNL     1      17.928   9.460  21.330  0.00  0.00    +0.000 NA
ATOM     34  N   UNL     1      15.727   9.548  20.473  0.00  0.00    +0.000 NA
ATOM     35  N   UNL     1      19.274  10.675  19.788  0.00  0.00    +0.000 N 
ATOM     36  C   UNL     1      16.582   9.142  21.411  0.00  0.00    +0.000 A 
ATOM     37  C   UNL     1      18.100  10.167  20.235  0.00  0.00    +0.000 A 
ATOM     38  H   UNL     1      17.974   7.005  20.918  0.00  0.00    +0.000 HD
ATOM     39  H   UNL     1      17.974   7.005  20.918  0.00  0.00    +0.000 HD
ENDBRANCH  31  36
BRANCH  30  40
ATOM     40  O   UNL     1      15.239  10.268  23.305  0.00  0.00    +0.000 OA
ATOM     41  H   UNL     1      18.706   9.362  22.892  0.00  0.00    +0.000 HD
ENDBRANCH  30  40
ENDBRANCH  28  31
ENDBRANCH  25  27
BRANCH  25  43
ATOM     42  OXT UNL     1      14.811   4.439  19.336  0.00  0.00    +0.000 OA
ATOM     43  C   UNL     1      15.745   4.402  20.129  0.00  0.00    +0.000 C 
BRANCH  43  44
ATOM     44  O   UNL     1      17.002   4.031  19.770  0.00  0.00    +0.000 OA
ATOM     45  H   UNL     1      12.088   6.169  23.324  0.00  0.00    +0.000 HD
ENDBRANCH  43  44
ENDBRANCH  25  43
ENDBRANCH   4  25
TORSDOF 11
ENDMDL
MODEL 8
REMARK minimizedAffinity -7.46404219
REMARK minimizedRMSD -1
REMARK  Name = 170454212
REMARK  11 active torsions:
REMARK  status: ('A' for Active; 'I' for Inactive)
REMARK    1  A    between atoms: O_4  and  C_32
REMARK    2  A    between atoms: O_5  and  C_33
REMARK    3  A    between atoms: O_9  and  N_14
REMARK    4  A    between atoms: N_10  and  C_18
REMARK    5  A    between atoms: N_13  and  CA_31
REMARK    6  A    between atoms: C_26  and  C_27
REMARK    7  A    between atoms: C_28  and  CA_31
REMARK    8  A    between atoms: CA_30  and  C_32
REMARK    9  A    between atoms: CA_31  and  C_33
REMARK   10  A    between atoms: C_34  and  C_35
REMARK   11  A    between atoms: C_35  and  C_36
REMARK                            x       y       z     vdW  Elec       q    Type
REMARK                         _______ _______ _______ _____ _____    ______ ____
ROOT
ATOM      1  S   UNL     1      15.425   5.569  21.580  0.00  0.00    +0.000 S 
ATOM      2  N   UNL     1      13.563   6.413  23.353  0.00  0.00    +0.000 N 
ATOM      3  C   UNL     1      15.671   5.787  24.367  0.00  0.00    +0.000 C 
ATOM      4  C   UNL     1      14.024   6.650  22.001  0.00  0.00    +0.000 C 
ATOM      5  C   UNL     1      16.443   5.839  23.062  0.00  0.00    +0.000 C 
ATOM      6  CA  UNL     1      14.346   6.056  24.432  0.00  0.00    +0.000 C 
ATOM      7  H   UNL     1      16.111   7.589  25.620  0.00  0.00    +0.000 HD
ENDROOT
BRANCH   3  14
ATOM      8  O   UNL     1      18.230   4.645  27.714  0.00  0.00    +0.000 OA
ATOM      9  N   UNL     1      17.308   2.510  27.345  0.00  0.00    +0.000 N 
ATOM     10  C   UNL     1      16.326   1.909  26.470  0.00  0.00    +0.000 C 
ATOM     11  C   UNL     1      15.994   2.963  25.424  0.00  0.00    +0.000 C 
ATOM     12  C   UNL     1      17.510   3.863  27.115  0.00  0.00    +0.000 C 
ATOM     13  C   UNL     1      16.652   4.198  25.950  0.00  0.00    +0.000 C 
ATOM     14  C   UNL     1      16.516   5.446  25.495  0.00  0.00    +0.000 C 
BRANCH   9  16
ATOM     15  N   UNL     1      17.733   0.810  30.524  0.00  0.00    +0.000 NA
ATOM     16  C   UNL     1      17.920   1.757  28.400  0.00  0.00    +0.000 C 
ATOM     17  C   UNL     1      17.853   0.252  28.187  0.00  0.00    +0.000 C 
ATOM     18  C   UNL     1      17.235   1.947  29.740  0.00  0.00    +0.000 C 
ATOM     19  C   UNL     1      17.747  -0.329  29.595  0.00  0.00    +0.000 C 
ATOM     20  H   UNL     1      15.796   5.214  25.763  0.00  0.00    +0.000 HD
ENDBRANCH   9  16
ENDBRANCH   3  14
BRANCH   6  22
ATOM     21  OXT UNL     1      13.151   4.976  26.181  0.00  0.00    +0.000 OA
ATOM     22  C   UNL     1      13.607   5.994  25.710  0.00  0.00    +0.000 C 
BRANCH  22  23
ATOM     23  O   UNL     1      13.537   7.230  26.238  0.00  0.00    +0.000 OA
ATOM     24  H   UNL     1      16.516   6.585  25.805  0.00  0.00    +0.000 HD
ENDBRANCH  22  23
ENDBRANCH   6  22
BRANCH   4  25
ATOM     25  CA  UNL     1      14.379   8.121  21.817  0.00  0.00    +0.000 C 
BRANCH  25  27
ATOM     26  O   UNL     1      15.598   9.852  19.765  0.00  0.00    +0.000 OA
ATOM     27  N   UNL     1      15.773   8.290  21.512  0.00  0.00    +0.000 N 
ATOM     28  C   UNL     1      16.233   9.135  20.521  0.00  0.00    +0.000 C 
ATOM     29  H   UNL     1      18.298   6.598  21.561  0.00  0.00    +0.000 HD
BRANCH  28  31
ATOM     30  N   UNL     1      18.452   9.957  21.096  0.00  0.00    +0.000 NA
ATOM     31  C   UNL     1      17.734   9.127  20.401  0.00  0.00    +0.000 C 
BRANCH  31  36
ATOM     32  S   UNL     1      19.355   7.181  17.505  0.00  0.00    +0.000 S 
ATOM     33  N   UNL     1      18.679   6.876  19.928  0.00  0.00    +0.000 NA
ATOM     34  N   UNL     1      18.651   8.516  18.228  0.00  0.00    +0.000 NA
ATOM     35  N   UNL     1      19.674   4.946  18.952  0.00  0.00    +0.000 N 
ATOM     36  C   UNL     1      18.375   8.150  19.479  0.00  0.00    +0.000 A 
ATOM     37  C   UNL     1      19.231   6.227  18.927  0.00  0.00    +0.000 A 
ATOM     38  H   UNL     1      16.190   6.802  19.878  0.00  0.00    +0.000 HD
ATOM     39  H   UNL     1      16.190   6.802  19.878  0.00  0.00    +0.000 HD
ENDBRANCH  31  36
BRANCH  30  40
ATOM     40  O   UNL     1      19.819   9.791  20.852  0.00  0.00    +0.000 OA
ATOM     41  H   UNL     1      18.298   6.598  21.561  0.00  0.00    +0.000 HD
ENDBRANCH  30  40
ENDBRANCH  28  31
ENDBRANCH  25  27
BRANCH  25  43
ATOM     42  OXT UNL     1      12.981   9.239  23.464  0.00  0.00    +0.000 OA
ATOM     43  C   UNL     1      14.094   8.899  23.082  0.00  0.00    +0.000 C 
BRANCH  43  44
ATOM     44  O   UNL     1      15.234   9.229  23.744  0.00  0.00    +0.000 OA
ATOM     45  H   UNL     1      11.276   6.566  19.432  0.00  0.00    +0.000 HD
ENDBRANCH  43  44
ENDBRANCH  25  43
ENDBRANCH   4  25
TORSDOF 11
ENDMDL
MODEL 9
REMARK minimizedAffinity -7.45507002
REMARK minimizedRMSD -1
REMARK  Name = 170454212
REMARK  11 active torsions:
REMARK  status: ('A' for Active; 'I' for Inactive)
REMARK    1  A    between atoms: O_4  and  C_32
REMARK    2  A    between atoms: O_5  and  C_33
REMARK    3  A    between atoms: O_9  and  N_14
REMARK    4  A    between atoms: N_10  and  C_18
REMARK    5  A    between atoms: N_13  and  CA_31
REMARK    6  A    between atoms: C_26  and  C_27
REMARK    7  A    between atoms: C_28  and  CA_31
REMARK    8  A    between atoms: CA_30  and  C_32
REMARK    9  A    between atoms: CA_31  and  C_33
REMARK   10  A    between atoms: C_34  and  C_35
REMARK   11  A    between atoms: C_35  and  C_36
REMARK                            x       y       z     vdW  Elec       q    Type
REMARK                         _______ _______ _______ _____ _____    ______ ____
ROOT
ATOM      1  S   UNL     1      15.109   5.264  25.416  0.00  0.00    +0.000 S 
ATOM      2  N   UNL     1      13.157   6.645  24.151  0.00  0.00    +0.000 N 
ATOM      3  C   UNL     1      15.396   7.258  23.463  0.00  0.00    +0.000 C 
ATOM      4  C   UNL     1      13.440   5.336  24.699  0.00  0.00    +0.000 C 
ATOM      5  C   UNL     1      16.037   6.011  24.042  0.00  0.00    +0.000 C 
ATOM      6  CA  UNL     1      14.067   7.494  23.552  0.00  0.00    +0.000 C 
ATOM      7  H   UNL     1      15.232   7.102  21.236  0.00  0.00    +0.000 HD
ENDROOT
BRANCH   3  14
ATOM      8  O   UNL     1      18.258   9.810  21.375  0.00  0.00    +0.000 OA
ATOM      9  N   UNL     1      18.259   8.064  19.796  0.00  0.00    +0.000 N 
ATOM     10  C   UNL     1      17.648   6.762  19.645  0.00  0.00    +0.000 C 
ATOM     11  C   UNL     1      16.603   6.658  20.746  0.00  0.00    +0.000 C 
ATOM     12  C   UNL     1      17.881   8.729  20.952  0.00  0.00    +0.000 C 
ATOM     13  C   UNL     1      16.883   7.846  21.609  0.00  0.00    +0.000 C 
ATOM     14  C   UNL     1      16.360   8.120  22.806  0.00  0.00    +0.000 C 
BRANCH   9  16
ATOM     15  N   UNL     1      20.128   8.427  16.705  0.00  0.00    +0.000 NA
ATOM     16  C   UNL     1      19.233   8.538  18.857  0.00  0.00    +0.000 C 
ATOM     17  C   UNL     1      18.827   9.830  18.163  0.00  0.00    +0.000 C 
ATOM     18  C   UNL     1      19.458   7.582  17.702  0.00  0.00    +0.000 C 
ATOM     19  C   UNL     1      19.441   9.726  16.771  0.00  0.00    +0.000 C 
ATOM     20  H   UNL     1      16.558   5.807  21.825  0.00  0.00    +0.000 HD
ENDBRANCH   9  16
ENDBRANCH   3  14
BRANCH   6  22
ATOM     21  OXT UNL     1      13.745   9.840  23.338  0.00  0.00    +0.000 OA
ATOM     22  C   UNL     1      13.459   8.717  22.988  0.00  0.00    +0.000 C 
BRANCH  22  23
ATOM     23  O   UNL     1      12.563   8.369  22.046  0.00  0.00    +0.000 OA
ATOM     24  H   UNL     1      15.263   7.124  21.248  0.00  0.00    +0.000 HD
ENDBRANCH  22  23
ENDBRANCH   6  22
BRANCH   4  25
ATOM     25  CA  UNL     1      13.245   4.265  23.631  0.00  0.00    +0.000 C 
BRANCH  25  27
ATOM     26  O   UNL     1      10.473   4.825  22.797  0.00  0.00    +0.000 OA
ATOM     27  N   UNL     1      12.066   3.482  23.883  0.00  0.00    +0.000 N 
ATOM     28  C   UNL     1      10.809   3.845  23.440  0.00  0.00    +0.000 C 
ATOM     29  H   UNL     1      11.021   1.647  26.069  0.00  0.00    +0.000 HD
BRANCH  28  31
ATOM     30  N   UNL     1      10.061   1.789  24.511  0.00  0.00    +0.000 NA
ATOM     31  C   UNL     1       9.746   2.855  23.839  0.00  0.00    +0.000 C 
BRANCH  31  36
ATOM     32  S   UNL     1       6.098   4.016  23.464  0.00  0.00    +0.000 S 
ATOM     33  N   UNL     1       7.794   2.509  22.338  0.00  0.00    +0.000 NA
ATOM     34  N   UNL     1       7.604   3.962  24.191  0.00  0.00    +0.000 NA
ATOM     35  N   UNL     1       5.671   2.547  21.262  0.00  0.00    +0.000 N 
ATOM     36  C   UNL     1       8.334   3.125  23.454  0.00  0.00    +0.000 A 
ATOM     37  C   UNL     1       6.550   2.916  22.226  0.00  0.00    +0.000 A 
ATOM     38  H   UNL     1       8.048   0.581  23.894  0.00  0.00    +0.000 HD
ATOM     39  H   UNL     1       8.048   0.581  23.894  0.00  0.00    +0.000 HD
ENDBRANCH  31  36
BRANCH  30  40
ATOM     40  O   UNL     1       8.940   1.002  24.789  0.00  0.00    +0.000 OA
ATOM     41  H   UNL     1       8.292   4.431  25.699  0.00  0.00    +0.000 HD
ENDBRANCH  30  40
ENDBRANCH  28  31
ENDBRANCH  25  27
BRANCH  25  43
ATOM     42  OXT UNL     1      15.296   3.302  22.747  0.00  0.00    +0.000 OA
ATOM     43  C   UNL     1      14.423   3.318  23.606  0.00  0.00    +0.000 C 
BRANCH  43  44
ATOM     44  O   UNL     1      14.388   2.435  24.638  0.00  0.00    +0.000 OA
ATOM     45  H   UNL     1      12.885   7.420  20.864  0.00  0.00    +0.000 HD
ENDBRANCH  43  44
ENDBRANCH  25  43
ENDBRANCH   4  25
TORSDOF 11
ENDMDL
MODEL 10
REMARK minimizedAffinity -7.30964708
REMARK minimizedRMSD -1
REMARK  Name = 170454212
REMARK  11 active torsions:
REMARK  status: ('A' for Active; 'I' for Inactive)
REMARK    1  A    between atoms: O_4  and  C_32
REMARK    2  A    between atoms: O_5  and  C_33
REMARK    3  A    between atoms: O_9  and  N_14
REMARK    4  A    between atoms: N_10  and  C_18
REMARK    5  A    between atoms: N_13  and  CA_31
REMARK    6  A    between atoms: C_26  and  C_27
REMARK    7  A    between atoms: C_28  and  CA_31
REMARK    8  A    between atoms: CA_30  and  C_32
REMARK    9  A    between atoms: CA_31  and  C_33
REMARK   10  A    between atoms: C_34  and  C_35
REMARK   11  A    between atoms: C_35  and  C_36
REMARK                            x       y       z     vdW  Elec       q    Type
REMARK                         _______ _______ _______ _____ _____    ______ ____
ROOT
ATOM      1  S   UNL     1      16.647   9.873  20.635  0.00  0.00    +0.000 S 
ATOM      2  N   UNL     1      16.353   7.185  20.558  0.00  0.00    +0.000 N 
ATOM      3  C   UNL     1      18.651   7.915  20.779  0.00  0.00    +0.000 C 
ATOM      4  C   UNL     1      15.689   8.380  21.035  0.00  0.00    +0.000 C 
ATOM      5  C   UNL     1      18.281   9.322  21.210  0.00  0.00    +0.000 C 
ATOM      6  CA  UNL     1      17.717   6.980  20.487  0.00  0.00    +0.000 C 
ATOM      7  H   UNL     1      19.333   6.702  22.533  0.00  0.00    +0.000 HD
ENDROOT
BRANCH   3  14
ATOM      8  O   UNL     1      22.981   7.386  20.596  0.00  0.00    +0.000 OA
ATOM      9  N   UNL     1      22.712   8.142  18.382  0.00  0.00    +0.000 N 
ATOM     10  C   UNL     1      21.624   8.527  17.511  0.00  0.00    +0.000 C 
ATOM     11  C   UNL     1      20.390   8.619  18.396  0.00  0.00    +0.000 C 
ATOM     12  C   UNL     1      22.309   7.794  19.663  0.00  0.00    +0.000 C 
ATOM     13  C   UNL     1      20.842   8.024  19.691  0.00  0.00    +0.000 C 
ATOM     14  C   UNL     1      20.086   7.707  20.745  0.00  0.00    +0.000 C 
BRANCH   9  16
ATOM     15  N   UNL     1      25.527   8.259  16.093  0.00  0.00    +0.000 NA
ATOM     16  C   UNL     1      24.057   8.052  17.893  0.00  0.00    +0.000 C 
ATOM     17  C   UNL     1      24.886   9.298  18.166  0.00  0.00    +0.000 C 
ATOM     18  C   UNL     1      24.131   7.912  16.384  0.00  0.00    +0.000 C 
ATOM     19  C   UNL     1      25.841   9.390  16.980  0.00  0.00    +0.000 C 
ATOM     20  H   UNL     1      19.320   7.422  18.660  0.00  0.00    +0.000 HD
ENDBRANCH   9  16
ENDBRANCH   3  14
BRANCH   6  22
ATOM     21  OXT UNL     1      18.234   4.684  20.821  0.00  0.00    +0.000 OA
ATOM     22  C   UNL     1      18.094   5.617  20.062  0.00  0.00    +0.000 C 
BRANCH  22  23
ATOM     23  O   UNL     1      18.247   5.599  18.725  0.00  0.00    +0.000 OA
ATOM     24  H   UNL     1      15.402   6.620  19.309  0.00  0.00    +0.000 HD
ENDBRANCH  22  23
ENDBRANCH   6  22
BRANCH   4  25
ATOM     25  CA  UNL     1      15.424   8.271  22.532  0.00  0.00    +0.000 C 
BRANCH  25  27
ATOM     26  O   UNL     1      15.791   5.636  23.803  0.00  0.00    +0.000 OA
ATOM     27  N   UNL     1      14.427   7.276  22.817  0.00  0.00    +0.000 N 
ATOM     28  C   UNL     1      14.716   6.068  23.421  0.00  0.00    +0.000 C 
ATOM     29  H   UNL     1      11.818   6.306  21.597  0.00  0.00    +0.000 HD
BRANCH  28  31
ATOM     30  N   UNL     1      12.463   5.356  22.832  0.00  0.00    +0.000 NA
ATOM     31  C   UNL     1      13.496   5.204  23.604  0.00  0.00    +0.000 C 
BRANCH  31  36
ATOM     32  S   UNL     1      13.227   3.112  26.821  0.00  0.00    +0.000 S 
ATOM     33  N   UNL     1      13.940   2.890  24.400  0.00  0.00    +0.000 NA
ATOM     34  N   UNL     1      13.080   4.501  25.899  0.00  0.00    +0.000 NA
ATOM     35  N   UNL     1      14.171   0.886  25.663  0.00  0.00    +0.000 N 
ATOM     36  C   UNL     1      13.501   4.174  24.678  0.00  0.00    +0.000 A 
ATOM     37  C   UNL     1      13.841   2.191  25.509  0.00  0.00    +0.000 A 
ATOM     38  H   UNL     1      16.064   4.183  24.254  0.00  0.00    +0.000 HD
ATOM     39  H   UNL     1      16.064   4.183  24.254  0.00  0.00    +0.000 HD
ENDBRANCH  31  36
BRANCH  30  40
ATOM     40  O   UNL     1      11.438   4.461  23.155  0.00  0.00    +0.000 OA
ATOM     41  H   UNL     1      14.563   2.690  22.829  0.00  0.00    +0.000 HD
ENDBRANCH  30  40
ENDBRANCH  28  31
ENDBRANCH  25  27
BRANCH  25  43
ATOM     42  OXT UNL     1      15.630  10.535  23.399  0.00  0.00    +0.000 OA
ATOM     43  C   UNL     1      14.922   9.587  23.081  0.00  0.00    +0.000 C 
BRANCH  43  44
ATOM     44  O   UNL     1      13.571   9.595  23.229  0.00  0.00    +0.000 OA
ATOM     45  H   UNL     1      19.486   7.675  21.590  0.00  0.00    +0.000 HD
ENDBRANCH  43  44
ENDBRANCH  25  43
ENDBRANCH   4  25
TORSDOF 11
ENDMDL
MODEL 11
REMARK minimizedAffinity -7.30110836
REMARK minimizedRMSD -1
REMARK  Name = 170454212
REMARK  11 active torsions:
REMARK  status: ('A' for Active; 'I' for Inactive)
REMARK    1  A    between atoms: O_4  and  C_32
REMARK    2  A    between atoms: O_5  and  C_33
REMARK    3  A    between atoms: O_9  and  N_14
REMARK    4  A    between atoms: N_10  and  C_18
REMARK    5  A    between atoms: N_13  and  CA_31
REMARK    6  A    between atoms: C_26  and  C_27
REMARK    7  A    between atoms: C_28  and  CA_31
REMARK    8  A    between atoms: CA_30  and  C_32
REMARK    9  A    between atoms: CA_31  and  C_33
REMARK   10  A    between atoms: C_34  and  C_35
REMARK   11  A    between atoms: C_35  and  C_36
REMARK                            x       y       z     vdW  Elec       q    Type
REMARK                         _______ _______ _______ _____ _____    ______ ____
ROOT
ATOM      1  S   UNL     1      14.331   6.426  25.702  0.00  0.00    +0.000 S 
ATOM      2  N   UNL     1      15.344   4.725  23.857  0.00  0.00    +0.000 N 
ATOM      3  C   UNL     1      13.147   4.103  24.664  0.00  0.00    +0.000 C 
ATOM      4  C   UNL     1      15.324   6.130  24.207  0.00  0.00    +0.000 C 
ATOM      5  C   UNL     1      12.851   5.471  25.251  0.00  0.00    +0.000 C 
ATOM      6  CA  UNL     1      14.315   3.823  24.041  0.00  0.00    +0.000 C 
ATOM      7  H   UNL     1      12.037   3.809  22.743  0.00  0.00    +0.000 HD
ENDROOT
BRANCH   3  14
ATOM      8  O   UNL     1       9.788   1.343  25.060  0.00  0.00    +0.000 OA
ATOM      9  N   UNL     1       8.757   2.797  23.522  0.00  0.00    +0.000 N 
ATOM     10  C   UNL     1       9.077   4.032  22.841  0.00  0.00    +0.000 C 
ATOM     11  C   UNL     1      10.556   4.281  23.098  0.00  0.00    +0.000 C 
ATOM     12  C   UNL     1       9.777   2.322  24.332  0.00  0.00    +0.000 C 
ATOM     13  C   UNL     1      10.907   3.266  24.138  0.00  0.00    +0.000 C 
ATOM     14  C   UNL     1      12.043   3.179  24.835  0.00  0.00    +0.000 C 
BRANCH   9  16
ATOM     15  N   UNL     1       5.183   2.307  23.934  0.00  0.00    +0.000 NA
ATOM     16  C   UNL     1       7.455   2.207  23.411  0.00  0.00    +0.000 C 
ATOM     17  C   UNL     1       6.738   2.557  22.115  0.00  0.00    +0.000 C 
ATOM     18  C   UNL     1       6.492   2.688  24.479  0.00  0.00    +0.000 C 
ATOM     19  C   UNL     1       5.261   2.599  22.495  0.00  0.00    +0.000 C 
ATOM     20  H   UNL     1      11.644   3.991  25.053  0.00  0.00    +0.000 HD
ENDBRANCH   9  16
ENDBRANCH   3  14
BRANCH   6  22
ATOM     21  OXT UNL     1      15.006   1.549  24.130  0.00  0.00    +0.000 OA
ATOM     22  C   UNL     1      14.590   2.483  23.482  0.00  0.00    +0.000 C 
BRANCH  22  23
ATOM     23  O   UNL     1      14.304   2.489  22.167  0.00  0.00    +0.000 OA
ATOM     24  H   UNL     1      11.761   3.367  23.664  0.00  0.00    +0.000 HD
ENDBRANCH  22  23
ENDBRANCH   6  22
BRANCH   4  25
ATOM     25  CA  UNL     1      14.820   6.958  23.030  0.00  0.00    +0.000 C 
BRANCH  25  27
ATOM     26  O   UNL     1      15.311   5.369  20.596  0.00  0.00    +0.000 OA
ATOM     27  N   UNL     1      15.846   7.143  22.041  0.00  0.00    +0.000 N 
ATOM     28  C   UNL     1      15.982   6.330  20.933  0.00  0.00    +0.000 C 
ATOM     29  H   UNL     1      18.716   8.139  21.951  0.00  0.00    +0.000 HD
BRANCH  28  31
ATOM     30  N   UNL     1      17.769   5.845  19.352  0.00  0.00    +0.000 NA
ATOM     31  C   UNL     1      17.137   6.735  20.055  0.00  0.00    +0.000 C 
BRANCH  31  36
ATOM     32  S   UNL     1      18.757  10.210  20.370  0.00  0.00    +0.000 S 
ATOM     33  N   UNL     1      16.761   9.074  19.300  0.00  0.00    +0.000 NA
ATOM     34  N   UNL     1      18.635   8.563  20.647  0.00  0.00    +0.000 NA
ATOM     35  N   UNL     1      16.886  11.413  18.875  0.00  0.00    +0.000 N 
ATOM     36  C   UNL     1      17.534   8.168  20.007  0.00  0.00    +0.000 A 
ATOM     37  C   UNL     1      17.329  10.254  19.419  0.00  0.00    +0.000 A 
ATOM     38  H   UNL     1      15.258   8.523  21.208  0.00  0.00    +0.000 HD
ATOM     39  H   UNL     1      15.258   8.523  21.208  0.00  0.00    +0.000 HD
ENDBRANCH  31  36
BRANCH  30  40
ATOM     40  O   UNL     1      18.802   6.415  18.601  0.00  0.00    +0.000 OA
ATOM     41  H   UNL     1      15.754   8.282  18.118  0.00  0.00    +0.000 HD
ENDBRANCH  30  40
ENDBRANCH  28  31
ENDBRANCH  25  27
BRANCH  25  43
ATOM     42  OXT UNL     1      13.230   8.649  23.758  0.00  0.00    +0.000 OA
ATOM     43  C   UNL     1      14.382   8.329  23.493  0.00  0.00    +0.000 C 
BRANCH  43  44
ATOM     44  O   UNL     1      15.420   9.205  23.541  0.00  0.00    +0.000 OA
ATOM     45  H   UNL     1      12.142   3.709  22.906  0.00  0.00    +0.000 HD
ENDBRANCH  43  44
ENDBRANCH  25  43
ENDBRANCH   4  25
TORSDOF 11
ENDMDL
MODEL 12
REMARK minimizedAffinity -7.22311735
REMARK minimizedRMSD -1
REMARK  Name = 170454212
REMARK  11 active torsions:
REMARK  status: ('A' for Active; 'I' for Inactive)
REMARK    1  A    between atoms: O_4  and  C_32
REMARK    2  A    between atoms: O_5  and  C_33
REMARK    3  A    between atoms: O_9  and  N_14
REMARK    4  A    between atoms: N_10  and  C_18
REMARK    5  A    between atoms: N_13  and  CA_31
REMARK    6  A    between atoms: C_26  and  C_27
REMARK    7  A    between atoms: C_28  and  CA_31
REMARK    8  A    between atoms: CA_30  and  C_32
REMARK    9  A    between atoms: CA_31  and  C_33
REMARK   10  A    between atoms: C_34  and  C_35
REMARK   11  A    between atoms: C_35  and  C_36
REMARK                            x       y       z     vdW  Elec       q    Type
REMARK                         _______ _______ _______ _____ _____    ______ ____
ROOT
ATOM      1  S   UNL     1      16.560   9.673  20.136  0.00  0.00    +0.000 S 
ATOM      2  N   UNL     1      16.715   7.007  20.566  0.00  0.00    +0.000 N 
ATOM      3  C   UNL     1      18.858   8.064  20.174  0.00  0.00    +0.000 C 
ATOM      4  C   UNL     1      15.958   8.174  20.969  0.00  0.00    +0.000 C 
ATOM      5  C   UNL     1      18.341   9.466  20.435  0.00  0.00    +0.000 C 
ATOM      6  CA  UNL     1      18.057   6.975  20.244  0.00  0.00    +0.000 C 
ATOM      7  H   UNL     1      20.044   7.319  21.920  0.00  0.00    +0.000 HD
ENDROOT
BRANCH   3  14
ATOM      8  O   UNL     1      23.105   8.078  19.165  0.00  0.00    +0.000 OA
ATOM      9  N   UNL     1      22.307   8.139  16.951  0.00  0.00    +0.000 N 
ATOM     10  C   UNL     1      21.027   8.117  16.277  0.00  0.00    +0.000 C 
ATOM     11  C   UNL     1      19.977   8.292  17.365  0.00  0.00    +0.000 C 
ATOM     12  C   UNL     1      22.212   8.116  18.334  0.00  0.00    +0.000 C 
ATOM     13  C   UNL     1      20.757   8.149  18.632  0.00  0.00    +0.000 C 
ATOM     14  C   UNL     1      20.276   8.046  19.873  0.00  0.00    +0.000 C 
BRANCH   9  16
ATOM     15  N   UNL     1      25.813   8.581  16.123  0.00  0.00    +0.000 NA
ATOM     16  C   UNL     1      23.533   8.093  16.211  0.00  0.00    +0.000 C 
ATOM     17  C   UNL     1      24.255   6.758  16.315  0.00  0.00    +0.000 C 
ATOM     18  C   UNL     1      24.566   9.084  16.712  0.00  0.00    +0.000 C 
ATOM     19  C   UNL     1      25.736   7.117  16.239  0.00  0.00    +0.000 C 
ATOM     20  H   UNL     1      19.601   9.529  18.640  0.00  0.00    +0.000 HD
ENDBRANCH   9  16
ENDBRANCH   3  14
BRANCH   6  22
ATOM     21  OXT UNL     1      19.112   4.922  20.813  0.00  0.00    +0.000 OA
ATOM     22  C   UNL     1      18.575   5.617  19.980  0.00  0.00    +0.000 C 
BRANCH  22  23
ATOM     23  O   UNL     1      18.348   5.302  18.692  0.00  0.00    +0.000 OA
ATOM     24  H   UNL     1      15.632   6.020  19.954  0.00  0.00    +0.000 HD
ENDBRANCH  22  23
ENDBRANCH   6  22
BRANCH   4  25
ATOM     25  CA  UNL     1      15.994   8.326  22.486  0.00  0.00    +0.000 C 
BRANCH  25  27
ATOM     26  O   UNL     1      17.526   6.083  23.632  0.00  0.00    +0.000 OA
ATOM     27  N   UNL     1      15.491   7.151  23.143  0.00  0.00    +0.000 N 
ATOM     28  C   UNL     1      16.309   6.157  23.644  0.00  0.00    +0.000 C 
ATOM     29  H   UNL     1      13.038   5.365  22.970  0.00  0.00    +0.000 HD
BRANCH  28  31
ATOM     30  N   UNL     1      15.873   4.585  25.452  0.00  0.00    +0.000 NA
ATOM     31  C   UNL     1      15.534   5.034  24.281  0.00  0.00    +0.000 C 
BRANCH  31  36
ATOM     32  S   UNL     1      13.080   3.167  21.981  0.00  0.00    +0.000 S 
ATOM     33  N   UNL     1      13.085   4.815  23.905  0.00  0.00    +0.000 NA
ATOM     34  N   UNL     1      14.593   3.595  22.555  0.00  0.00    +0.000 NA
ATOM     35  N   UNL     1      10.909   4.242  23.128  0.00  0.00    +0.000 N 
ATOM     36  C   UNL     1      14.374   4.456  23.548  0.00  0.00    +0.000 A 
ATOM     37  C   UNL     1      12.262   4.169  23.109  0.00  0.00    +0.000 A 
ATOM     38  H   UNL     1      13.933   6.935  22.909  0.00  0.00    +0.000 HD
ATOM     39  H   UNL     1      13.933   6.935  22.909  0.00  0.00    +0.000 HD
ENDBRANCH  31  36
BRANCH  30  40
ATOM     40  O   UNL     1      15.032   3.550  25.873  0.00  0.00    +0.000 OA
ATOM     41  H   UNL     1      13.063   6.353  24.744  0.00  0.00    +0.000 HD
ENDBRANCH  30  40
ENDBRANCH  28  31
ENDBRANCH  25  27
BRANCH  25  43
ATOM     42  OXT UNL     1      15.564  10.560  23.347  0.00  0.00    +0.000 OA
ATOM     43  C   UNL     1      15.138   9.492  22.924  0.00  0.00    +0.000 C 
BRANCH  43  44
ATOM     44  O   UNL     1      13.811   9.210  22.839  0.00  0.00    +0.000 OA
ATOM     45  H   UNL     1      20.189   8.625  22.259  0.00  0.00    +0.000 HD
ENDBRANCH  43  44
ENDBRANCH  25  43
ENDBRANCH   4  25
TORSDOF 11
ENDMDL
MODEL 13
REMARK minimizedAffinity -7.22161198
REMARK minimizedRMSD -1
REMARK  Name = 170454212
REMARK  11 active torsions:
REMARK  status: ('A' for Active; 'I' for Inactive)
REMARK    1  A    between atoms: O_4  and  C_32
REMARK    2  A    between atoms: O_5  and  C_33
REMARK    3  A    between atoms: O_9  and  N_14
REMARK    4  A    between atoms: N_10  and  C_18
REMARK    5  A    between atoms: N_13  and  CA_31
REMARK    6  A    between atoms: C_26  and  C_27
REMARK    7  A    between atoms: C_28  and  CA_31
REMARK    8  A    between atoms: CA_30  and  C_32
REMARK    9  A    between atoms: CA_31  and  C_33
REMARK   10  A    between atoms: C_34  and  C_35
REMARK   11  A    between atoms: C_35  and  C_36
REMARK                            x       y       z     vdW  Elec       q    Type
REMARK                         _______ _______ _______ _____ _____    ______ ____
ROOT
ATOM      1  S   UNL     1      23.900   5.666  18.236  0.00  0.00    +0.000 S 
ATOM      2  N   UNL     1      21.959   6.961  16.866  0.00  0.00    +0.000 N 
ATOM      3  C   UNL     1      21.196   4.959  17.994  0.00  0.00    +0.000 C 
ATOM      4  C   UNL     1      23.155   7.215  17.641  0.00  0.00    +0.000 C 
ATOM      5  C   UNL     1      22.407   4.874  18.905  0.00  0.00    +0.000 C 
ATOM      6  CA  UNL     1      21.053   5.940  17.073  0.00  0.00    +0.000 C 
ATOM      7  H   UNL     1      19.418   5.732  19.113  0.00  0.00    +0.000 HD
ENDROOT
BRANCH   3  14
ATOM      8  O   UNL     1      18.230   1.859  18.801  0.00  0.00    +0.000 OA
ATOM      9  N   UNL     1      17.529   3.342  20.490  0.00  0.00    +0.000 N 
ATOM     10  C   UNL     1      17.938   4.623  21.022  0.00  0.00    +0.000 C 
ATOM     11  C   UNL     1      18.981   5.165  20.056  0.00  0.00    +0.000 C 
ATOM     12  C   UNL     1      18.299   2.907  19.422  0.00  0.00    +0.000 C 
ATOM     13  C   UNL     1      19.266   4.003  19.159  0.00  0.00    +0.000 C 
ATOM     14  C   UNL     1      20.238   3.900  18.250  0.00  0.00    +0.000 C 
BRANCH   9  16
ATOM     15  N   UNL     1      14.879   2.430  22.798  0.00  0.00    +0.000 NA
ATOM     16  C   UNL     1      16.477   2.586  21.105  0.00  0.00    +0.000 C 
ATOM     17  C   UNL     1      15.126   2.766  20.428  0.00  0.00    +0.000 C 
ATOM     18  C   UNL     1      16.205   3.005  22.537  0.00  0.00    +0.000 C 
ATOM     19  C   UNL     1      14.112   2.643  21.561  0.00  0.00    +0.000 C 
ATOM     20  H   UNL     1      20.584   4.980  20.194  0.00  0.00    +0.000 HD
ENDBRANCH   9  16
ENDBRANCH   3  14
BRANCH   6  22
ATOM     21  OXT UNL     1      19.768   5.397  15.148  0.00  0.00    +0.000 OA
ATOM     22  C   UNL     1      19.870   6.004  16.190  0.00  0.00    +0.000 C 
BRANCH  22  23
ATOM     23  O   UNL     1      18.959   6.831  16.735  0.00  0.00    +0.000 OA
ATOM     24  H   UNL     1      19.580   4.650  18.817  0.00  0.00    +0.000 HD
ENDBRANCH  22  23
ENDBRANCH   6  22
BRANCH   4  25
ATOM     25  CA  UNL     1      22.843   8.162  18.794  0.00  0.00    +0.000 C 
BRANCH  25  27
ATOM     26  O   UNL     1      20.604   8.101  20.711  0.00  0.00    +0.000 OA
ATOM     27  N   UNL     1      21.538   8.747  18.654  0.00  0.00    +0.000 N 
ATOM     28  C   UNL     1      20.560   8.654  19.624  0.00  0.00    +0.000 C 
ATOM     29  H   UNL     1      19.578   9.338  16.407  0.00  0.00    +0.000 HD
BRANCH  28  31
ATOM     30  N   UNL     1      19.244  10.097  18.169  0.00  0.00    +0.000 NA
ATOM     31  C   UNL     1      19.283   9.349  19.230  0.00  0.00    +0.000 C 
BRANCH  31  36
ATOM     32  S   UNL     1      16.005   8.271  20.929  0.00  0.00    +0.000 S 
ATOM     33  N   UNL     1      17.844   9.999  21.151  0.00  0.00    +0.000 NA
ATOM     34  N   UNL     1      17.220   8.177  19.783  0.00  0.00    +0.000 NA
ATOM     35  N   UNL     1      16.143  10.180  22.807  0.00  0.00    +0.000 N 
ATOM     36  C   UNL     1      18.072   9.159  20.075  0.00  0.00    +0.000 A 
ATOM     37  C   UNL     1      16.721   9.616  21.718  0.00  0.00    +0.000 A 
ATOM     38  H   UNL     1      17.484  11.544  19.232  0.00  0.00    +0.000 HD
ATOM     39  H   UNL     1      17.484  11.544  19.232  0.00  0.00    +0.000 HD
ENDBRANCH  31  36
BRANCH  30  40
ATOM     40  O   UNL     1      17.975  10.648  17.969  0.00  0.00    +0.000 OA
ATOM     41  H   UNL     1      17.700   7.097  18.539  0.00  0.00    +0.000 HD
ENDBRANCH  30  40
ENDBRANCH  28  31
ENDBRANCH  25  27
BRANCH  25  43
ATOM     42  OXT UNL     1      24.090   9.980  19.824  0.00  0.00    +0.000 OA
ATOM     43  C   UNL     1      23.845   9.293  18.840  0.00  0.00    +0.000 C 
BRANCH  43  44
ATOM     44  O   UNL     1      24.430   9.504  17.631  0.00  0.00    +0.000 OA
ATOM     45  H   UNL     1      20.866   6.822  22.263  0.00  0.00    +0.000 HD
ENDBRANCH  43  44
ENDBRANCH  25  43
ENDBRANCH   4  25
TORSDOF 11
ENDMDL
MODEL 14
REMARK minimizedAffinity -7.11944056
REMARK minimizedRMSD -1
REMARK  Name = 170454212
REMARK  11 active torsions:
REMARK  status: ('A' for Active; 'I' for Inactive)
REMARK    1  A    between atoms: O_4  and  C_32
REMARK    2  A    between atoms: O_5  and  C_33
REMARK    3  A    between atoms: O_9  and  N_14
REMARK    4  A    between atoms: N_10  and  C_18
REMARK    5  A    between atoms: N_13  and  CA_31
REMARK    6  A    between atoms: C_26  and  C_27
REMARK    7  A    between atoms: C_28  and  CA_31
REMARK    8  A    between atoms: CA_30  and  C_32
REMARK    9  A    between atoms: CA_31  and  C_33
REMARK   10  A    between atoms: C_34  and  C_35
REMARK   11  A    between atoms: C_35  and  C_36
REMARK                            x       y       z     vdW  Elec       q    Type
REMARK                         _______ _______ _______ _____ _____    ______ ____
ROOT
ATOM      1  S   UNL     1      16.675  10.037  19.523  0.00  0.00    +0.000 S 
ATOM      2  N   UNL     1      17.088   7.373  19.755  0.00  0.00    +0.000 N 
ATOM      3  C   UNL     1      18.956   8.575  18.790  0.00  0.00    +0.000 C 
ATOM      4  C   UNL     1      16.430   8.476  20.423  0.00  0.00    +0.000 C 
ATOM      5  C   UNL     1      18.472   9.933  19.264  0.00  0.00    +0.000 C 
ATOM      6  CA  UNL     1      18.270   7.436  19.044  0.00  0.00    +0.000 C 
ATOM      7  H   UNL     1      20.650   7.851  20.061  0.00  0.00    +0.000 HD
ENDROOT
BRANCH   3  14
ATOM      8  O   UNL     1      22.806   8.769  16.742  0.00  0.00    +0.000 OA
ATOM      9  N   UNL     1      23.646   9.100  18.916  0.00  0.00    +0.000 N 
ATOM     10  C   UNL     1      23.117   9.234  20.256  0.00  0.00    +0.000 C 
ATOM     11  C   UNL     1      21.644   8.860  20.164  0.00  0.00    +0.000 C 
ATOM     12  C   UNL     1      22.676   8.875  17.951  0.00  0.00    +0.000 C 
ATOM     13  C   UNL     1      21.393   8.779  18.693  0.00  0.00    +0.000 C 
ATOM     14  C   UNL     1      20.215   8.656  18.077  0.00  0.00    +0.000 C 
BRANCH   9  16
ATOM     15  N   UNL     1      27.171   9.756  19.480  0.00  0.00    +0.000 NA
ATOM     16  C   UNL     1      25.042   9.286  18.650  0.00  0.00    +0.000 C 
ATOM     17  C   UNL     1      25.823   7.982  18.571  0.00  0.00    +0.000 C 
ATOM     18  C   UNL     1      25.758  10.052  19.745  0.00  0.00    +0.000 C 
ATOM     19  C   UNL     1      27.208   8.334  19.106  0.00  0.00    +0.000 C 
ATOM     20  H   UNL     1      20.420   9.892  19.951  0.00  0.00    +0.000 HD
ENDBRANCH   9  16
ENDBRANCH   3  14
BRANCH   6  22
ATOM     21  OXT UNL     1      18.636   5.728  17.431  0.00  0.00    +0.000 OA
ATOM     22  C   UNL     1      18.751   6.122  18.570  0.00  0.00    +0.000 C 
BRANCH  22  23
ATOM     23  O   UNL     1      19.322   5.466  19.597  0.00  0.00    +0.000 OA
ATOM     24  H   UNL     1      20.774   8.166  19.312  0.00  0.00    +0.000 HD
ENDBRANCH  22  23
ENDBRANCH   6  22
BRANCH   4  25
ATOM     25  CA  UNL     1      16.915   8.582  21.865  0.00  0.00    +0.000 C 
BRANCH  25  27
ATOM     26  O   UNL     1      19.241   6.821  22.295  0.00  0.00    +0.000 OA
ATOM     27  N   UNL     1      16.948   7.295  22.503  0.00  0.00    +0.000 N 
ATOM     28  C   UNL     1      18.104   6.554  22.649  0.00  0.00    +0.000 C 
ATOM     29  H   UNL     1      15.099   4.903  22.818  0.00  0.00    +0.000 HD
BRANCH  28  31
ATOM     30  N   UNL     1      18.870   4.485  23.680  0.00  0.00    +0.000 NA
ATOM     31  C   UNL     1      17.868   5.241  23.348  0.00  0.00    +0.000 C 
BRANCH  31  36
ATOM     32  S   UNL     1      14.379   4.548  24.814  0.00  0.00    +0.000 S 
ATOM     33  N   UNL     1      15.740   4.116  22.721  0.00  0.00    +0.000 NA
ATOM     34  N   UNL     1      15.935   5.165  24.830  0.00  0.00    +0.000 NA
ATOM     35  N   UNL     1      13.538   3.216  22.645  0.00  0.00    +0.000 N 
ATOM     36  C   UNL     1      16.469   4.833  23.655  0.00  0.00    +0.000 A 
ATOM     37  C   UNL     1      14.554   3.889  23.239  0.00  0.00    +0.000 A 
ATOM     38  H   UNL     1      17.441   2.435  23.418  0.00  0.00    +0.000 HD
ATOM     39  H   UNL     1      17.441   2.435  23.418  0.00  0.00    +0.000 HD
ENDBRANCH  31  36
BRANCH  30  40
ATOM     40  O   UNL     1      18.448   3.316  24.322  0.00  0.00    +0.000 OA
ATOM     41  H   UNL     1      16.876   6.189  25.834  0.00  0.00    +0.000 HD
ENDBRANCH  30  40
ENDBRANCH  28  31
ENDBRANCH  25  27
BRANCH  25  43
ATOM     42  OXT UNL     1      15.949  10.689  22.606  0.00  0.00    +0.000 OA
ATOM     43  C   UNL     1      15.993   9.466  22.673  0.00  0.00    +0.000 C 
BRANCH  43  44
ATOM     44  O   UNL     1      15.228   8.748  23.537  0.00  0.00    +0.000 OA
ATOM     45  H   UNL     1      19.367  10.148  18.819  0.00  0.00    +0.000 HD
ENDBRANCH  43  44
ENDBRANCH  25  43
ENDBRANCH   4  25
TORSDOF 11
ENDMDL
MODEL 15
REMARK minimizedAffinity -7.04144287
REMARK minimizedRMSD -1
REMARK  Name = 170454212
REMARK  11 active torsions:
REMARK  status: ('A' for Active; 'I' for Inactive)
REMARK    1  A    between atoms: O_4  and  C_32
REMARK    2  A    between atoms: O_5  and  C_33
REMARK    3  A    between atoms: O_9  and  N_14
REMARK    4  A    between atoms: N_10  and  C_18
REMARK    5  A    between atoms: N_13  and  CA_31
REMARK    6  A    between atoms: C_26  and  C_27
REMARK    7  A    between atoms: C_28  and  CA_31
REMARK    8  A    between atoms: CA_30  and  C_32
REMARK    9  A    between atoms: CA_31  and  C_33
REMARK   10  A    between atoms: C_34  and  C_35
REMARK   11  A    between atoms: C_35  and  C_36
REMARK                            x       y       z     vdW  Elec       q    Type
REMARK                         _______ _______ _______ _____ _____    ______ ____
ROOT
ATOM      1  S   UNL     1      18.948  10.236  19.098  0.00  0.00    +0.000 S 
ATOM      2  N   UNL     1      18.542   7.567  18.916  0.00  0.00    +0.000 N 
ATOM      3  C   UNL     1      20.812   8.177  19.497  0.00  0.00    +0.000 C 
ATOM      4  C   UNL     1      17.871   8.786  19.315  0.00  0.00    +0.000 C 
ATOM      5  C   UNL     1      20.448   9.594  19.900  0.00  0.00    +0.000 C 
ATOM      6  CA  UNL     1      19.889   7.295  19.046  0.00  0.00    +0.000 C 
ATOM      7  H   UNL     1      21.162   6.905  21.305  0.00  0.00    +0.000 HD
ENDROOT
BRANCH   3  14
ATOM      8  O   UNL     1      25.089   7.428  19.950  0.00  0.00    +0.000 OA
ATOM      9  N   UNL     1      25.174   8.096  17.694  0.00  0.00    +0.000 N 
ATOM     10  C   UNL     1      24.242   8.495  16.663  0.00  0.00    +0.000 C 
ATOM     11  C   UNL     1      22.903   8.687  17.360  0.00  0.00    +0.000 C 
ATOM     12  C   UNL     1      24.577   7.827  18.916  0.00  0.00    +0.000 C 
ATOM     13  C   UNL     1      23.136   8.129  18.728  0.00  0.00    +0.000 C 
ATOM     14  C   UNL     1      22.224   7.898  19.675  0.00  0.00    +0.000 C 
BRANCH   9  16
ATOM     15  N   UNL     1      28.203   7.236  15.887  0.00  0.00    +0.000 NA
ATOM     16  C   UNL     1      26.567   7.919  17.403  0.00  0.00    +0.000 C 
ATOM     17  C   UNL     1      27.252   9.189  16.921  0.00  0.00    +0.000 C 
ATOM     18  C   UNL     1      26.818   6.940  16.272  0.00  0.00    +0.000 C 
ATOM     19  C   UNL     1      28.320   8.701  15.947  0.00  0.00    +0.000 C 
ATOM     20  H   UNL     1      21.845   7.227  18.210  0.00  0.00    +0.000 HD
ENDBRANCH   9  16
ENDBRANCH   3  14
BRANCH   6  22
ATOM     21  OXT UNL     1      20.762   5.632  17.588  0.00  0.00    +0.000 OA
ATOM     22  C   UNL     1      20.261   5.921  18.652  0.00  0.00    +0.000 C 
BRANCH  22  23
ATOM     23  O   UNL     1      19.955   5.077  19.655  0.00  0.00    +0.000 OA
ATOM     24  H   UNL     1      21.832   7.230  20.806  0.00  0.00    +0.000 HD
ENDBRANCH  22  23
ENDBRANCH   6  22
BRANCH   4  25
ATOM     25  CA  UNL     1      17.377   8.668  20.752  0.00  0.00    +0.000 C 
BRANCH  25  27
ATOM     26  O   UNL     1      18.357   6.580  22.588  0.00  0.00    +0.000 OA
ATOM     27  N   UNL     1      16.810   7.373  21.007  0.00  0.00    +0.000 N 
ATOM     28  C   UNL     1      17.359   6.469  21.895  0.00  0.00    +0.000 C 
ATOM     29  H   UNL     1      15.257   5.265  19.464  0.00  0.00    +0.000 HD
BRANCH  28  31
ATOM     30  N   UNL     1      17.094   4.073  21.553  0.00  0.00    +0.000 NA
ATOM     31  C   UNL     1      16.575   5.186  21.977  0.00  0.00    +0.000 C 
BRANCH  31  36
ATOM     32  S   UNL     1      12.806   5.330  22.730  0.00  0.00    +0.000 S 
ATOM     33  N   UNL     1      15.031   5.130  23.925  0.00  0.00    +0.000 NA
ATOM     34  N   UNL     1      14.155   5.329  21.739  0.00  0.00    +0.000 NA
ATOM     35  N   UNL     1      13.148   5.127  25.381  0.00  0.00    +0.000 N 
ATOM     36  C   UNL     1      15.204   5.218  22.554  0.00  0.00    +0.000 A 
ATOM     37  C   UNL     1      13.739   5.181  24.163  0.00  0.00    +0.000 A 
ATOM     38  H   UNL     1      16.066   7.384  23.699  0.00  0.00    +0.000 HD
ATOM     39  H   UNL     1      16.066   7.384  23.699  0.00  0.00    +0.000 HD
ENDBRANCH  31  36
BRANCH  30  40
ATOM     40  O   UNL     1      16.217   2.996  21.718  0.00  0.00    +0.000 OA
ATOM     41  H   UNL     1      16.468   4.862  24.795  0.00  0.00    +0.000 HD
ENDBRANCH  30  40
ENDBRANCH  28  31
ENDBRANCH  25  27
BRANCH  25  43
ATOM     42  OXT UNL     1      16.218  10.364  22.056  0.00  0.00    +0.000 OA
ATOM     43  C   UNL     1      16.305   9.697  21.032  0.00  0.00    +0.000 C 
BRANCH  43  44
ATOM     44  O   UNL     1      15.398   9.775  20.023  0.00  0.00    +0.000 OA
ATOM     45  H   UNL     1      20.639   8.110  23.358  0.00  0.00    +0.000 HD
ENDBRANCH  43  44
ENDBRANCH  25  43
ENDBRANCH   4  25
TORSDOF 11
ENDMDL
MODEL 16
REMARK minimizedAffinity -6.96570683
REMARK minimizedRMSD -1
REMARK  Name = 170454212
REMARK  11 active torsions:
REMARK  status: ('A' for Active; 'I' for Inactive)
REMARK    1  A    between atoms: O_4  and  C_32
REMARK    2  A    between atoms: O_5  and  C_33
REMARK    3  A    between atoms: O_9  and  N_14
REMARK    4  A    between atoms: N_10  and  C_18
REMARK    5  A    between atoms: N_13  and  CA_31
REMARK    6  A    between atoms: C_26  and  C_27
REMARK    7  A    between atoms: C_28  and  CA_31
REMARK    8  A    between atoms: CA_30  and  C_32
REMARK    9  A    between atoms: CA_31  and  C_33
REMARK   10  A    between atoms: C_34  and  C_35
REMARK   11  A    between atoms: C_35  and  C_36
REMARK                            x       y       z     vdW  Elec       q    Type
REMARK                         _______ _______ _______ _____ _____    ______ ____
ROOT
ATOM      1  S   UNL     1      16.616   1.714  24.320  0.00  0.00    +0.000 S 
ATOM      2  N   UNL     1      16.471   3.544  22.333  0.00  0.00    +0.000 N 
ATOM      3  C   UNL     1      14.410   2.326  22.698  0.00  0.00    +0.000 C 
ATOM      4  C   UNL     1      17.095   3.322  23.620  0.00  0.00    +0.000 C 
ATOM      5  C   UNL     1      14.818   1.823  24.070  0.00  0.00    +0.000 C 
ATOM      6  CA  UNL     1      15.218   3.110  21.947  0.00  0.00    +0.000 C 
ATOM      7  H   UNL     1      12.934   3.999  22.876  0.00  0.00    +0.000 HD
ENDROOT
BRANCH   3  14
ATOM      8  O   UNL     1      10.368   1.134  21.559  0.00  0.00    +0.000 OA
ATOM      9  N   UNL     1       9.765   3.165  22.585  0.00  0.00    +0.000 N 
ATOM     10  C   UNL     1      10.425   4.239  23.295  0.00  0.00    +0.000 C 
ATOM     11  C   UNL     1      11.918   4.002  23.121  0.00  0.00    +0.000 C 
ATOM     12  C   UNL     1      10.628   2.175  22.139  0.00  0.00    +0.000 C 
ATOM     13  C   UNL     1      11.989   2.638  22.513  0.00  0.00    +0.000 C 
ATOM     14  C   UNL     1      13.078   1.890  22.325  0.00  0.00    +0.000 C 
BRANCH   9  16
ATOM     15  N   UNL     1       6.267   2.822  23.491  0.00  0.00    +0.000 NA
ATOM     16  C   UNL     1       8.338   3.128  22.460  0.00  0.00    +0.000 C 
ATOM     17  C   UNL     1       7.687   4.502  22.517  0.00  0.00    +0.000 C 
ATOM     18  C   UNL     1       7.663   2.379  23.593  0.00  0.00    +0.000 C 
ATOM     19  C   UNL     1       6.335   4.258  23.181  0.00  0.00    +0.000 C 
ATOM     20  H   UNL     1      12.984   2.018  23.240  0.00  0.00    +0.000 HD
ENDBRANCH   9  16
ENDBRANCH   3  14
BRANCH   6  22
ATOM     21  OXT UNL     1      14.161   4.591  20.417  0.00  0.00    +0.000 OA
ATOM     22  C   UNL     1      14.808   3.586  20.610  0.00  0.00    +0.000 C 
BRANCH  22  23
ATOM     23  O   UNL     1      15.268   2.732  19.678  0.00  0.00    +0.000 OA
ATOM     24  H   UNL     1      17.692   3.703  21.310  0.00  0.00    +0.000 HD
ENDBRANCH  22  23
ENDBRANCH   6  22
BRANCH   4  25
ATOM     25  CA  UNL     1      16.761   4.466  24.571  0.00  0.00    +0.000 C 
BRANCH  25  27
ATOM     26  O   UNL     1      14.506   6.295  24.058  0.00  0.00    +0.000 OA
ATOM     27  N   UNL     1      16.782   5.734  23.894  0.00  0.00    +0.000 N 
ATOM     28  C   UNL     1      15.655   6.511  23.710  0.00  0.00    +0.000 C 
ATOM     29  H   UNL     1      18.333   7.038  21.628  0.00  0.00    +0.000 HD
BRANCH  28  31
ATOM     30  N   UNL     1      15.372   8.898  23.324  0.00  0.00    +0.000 NA
ATOM     31  C   UNL     1      15.946   7.789  22.968  0.00  0.00    +0.000 C 
BRANCH  31  36
ATOM     32  S   UNL     1      17.876   7.276  19.680  0.00  0.00    +0.000 S 
ATOM     33  N   UNL     1      18.118   8.413  21.932  0.00  0.00    +0.000 NA
ATOM     34  N   UNL     1      16.578   7.093  20.721  0.00  0.00    +0.000 NA
ATOM     35  N   UNL     1      19.993   8.706  20.493  0.00  0.00    +0.000 N 
ATOM     36  C   UNL     1      16.904   7.756  21.829  0.00  0.00    +0.000 A 
ATOM     37  C   UNL     1      18.763   8.227  20.801  0.00  0.00    +0.000 A 
ATOM     38  H   UNL     1      18.430   6.542  23.546  0.00  0.00    +0.000 HD
ATOM     39  H   UNL     1      18.430   6.542  23.546  0.00  0.00    +0.000 HD
ENDBRANCH  31  36
BRANCH  30  40
ATOM     40  O   UNL     1      15.774   9.970  22.521  0.00  0.00    +0.000 OA
ATOM     41  H   UNL     1      18.665   8.162  23.696  0.00  0.00    +0.000 HD
ENDBRANCH  30  40
ENDBRANCH  28  31
ENDBRANCH  25  27
BRANCH  25  43
ATOM     42  OXT UNL     1      18.983   4.436  25.561  0.00  0.00    +0.000 OA
ATOM     43  C   UNL     1      17.770   4.535  25.695  0.00  0.00    +0.000 C 
BRANCH  43  44
ATOM     44  O   UNL     1      17.171   4.678  26.907  0.00  0.00    +0.000 OA
ATOM     45  H   UNL     1      17.960   4.287  20.537  0.00  0.00    +0.000 HD
ENDBRANCH  43  44
ENDBRANCH  25  43
ENDBRANCH   4  25
TORSDOF 11
ENDMDL
MODEL 17
REMARK minimizedAffinity -6.87450981
REMARK minimizedRMSD -1
REMARK  Name = 170454212
REMARK  11 active torsions:
REMARK  status: ('A' for Active; 'I' for Inactive)
REMARK    1  A    between atoms: O_4  and  C_32
REMARK    2  A    between atoms: O_5  and  C_33
REMARK    3  A    between atoms: O_9  and  N_14
REMARK    4  A    between atoms: N_10  and  C_18
REMARK    5  A    between atoms: N_13  and  CA_31
REMARK    6  A    between atoms: C_26  and  C_27
REMARK    7  A    between atoms: C_28  and  CA_31
REMARK    8  A    between atoms: CA_30  and  C_32
REMARK    9  A    between atoms: CA_31  and  C_33
REMARK   10  A    between atoms: C_34  and  C_35
REMARK   11  A    between atoms: C_35  and  C_36
REMARK                            x       y       z     vdW  Elec       q    Type
REMARK                         _______ _______ _______ _____ _____    ______ ____
ROOT
ATOM      1  S   UNL     1      15.005   2.669  20.777  0.00  0.00    +0.000 S 
ATOM      2  N   UNL     1      13.958   5.124  21.223  0.00  0.00    +0.000 N 
ATOM      3  C   UNL     1      13.570   3.550  23.022  0.00  0.00    +0.000 C 
ATOM      4  C   UNL     1      15.092   4.476  20.597  0.00  0.00    +0.000 C 
ATOM      5  C   UNL     1      14.640   2.581  22.556  0.00  0.00    +0.000 C 
ATOM      6  CA  UNL     1      13.300   4.700  22.360  0.00  0.00    +0.000 C 
ATOM      7  H   UNL     1      14.278   4.721  24.793  0.00  0.00    +0.000 HD
ENDROOT
BRANCH   3  14
ATOM      8  O   UNL     1      11.547   2.119  26.616  0.00  0.00    +0.000 OA
ATOM      9  N   UNL     1       9.905   1.407  25.087  0.00  0.00    +0.000 N 
ATOM     10  C   UNL     1       9.673   1.477  23.661  0.00  0.00    +0.000 C 
ATOM     11  C   UNL     1      10.967   1.994  23.050  0.00  0.00    +0.000 C 
ATOM     12  C   UNL     1      11.101   1.983  25.489  0.00  0.00    +0.000 C 
ATOM     13  C   UNL     1      11.770   2.420  24.237  0.00  0.00    +0.000 C 
ATOM     14  C   UNL     1      12.915   3.107  24.237  0.00  0.00    +0.000 C 
BRANCH   9  16
ATOM     15  N   UNL     1       6.806   1.068  26.947  0.00  0.00    +0.000 NA
ATOM     16  C   UNL     1       8.916   0.865  25.973  0.00  0.00    +0.000 C 
ATOM     17  C   UNL     1       8.051  -0.209  25.331  0.00  0.00    +0.000 C 
ATOM     18  C   UNL     1       7.904   1.896  26.433  0.00  0.00    +0.000 C 
ATOM     19  C   UNL     1       6.689  -0.053  26.002  0.00  0.00    +0.000 C 
ATOM     20  H   UNL     1      12.212   3.684  23.825  0.00  0.00    +0.000 HD
ENDBRANCH   9  16
ENDBRANCH   3  14
BRANCH   6  22
ATOM     21  OXT UNL     1      11.072   5.502  22.573  0.00  0.00    +0.000 OA
ATOM     22  C   UNL     1      12.250   5.629  22.823  0.00  0.00    +0.000 C 
BRANCH  22  23
ATOM     23  O   UNL     1      12.818   6.609  23.549  0.00  0.00    +0.000 OA
ATOM     24  H   UNL     1      13.603   3.931  24.849  0.00  0.00    +0.000 HD
ENDBRANCH  22  23
ENDBRANCH   6  22
BRANCH   4  25
ATOM     25  CA  UNL     1      16.393   5.032  21.165  0.00  0.00    +0.000 C 
BRANCH  25  27
ATOM     26  O   UNL     1      16.132   6.478  23.720  0.00  0.00    +0.000 OA
ATOM     27  N   UNL     1      16.309   6.450  21.377  0.00  0.00    +0.000 N 
ATOM     28  C   UNL     1      16.188   7.021  22.629  0.00  0.00    +0.000 C 
ATOM     29  H   UNL     1      15.206   8.874  19.912  0.00  0.00    +0.000 HD
BRANCH  28  31
ATOM     30  N   UNL     1      15.435   9.179  23.468  0.00  0.00    +0.000 NA
ATOM     31  C   UNL     1      16.116   8.524  22.578  0.00  0.00    +0.000 C 
BRANCH  31  36
ATOM     32  S   UNL     1      18.628  10.184  20.183  0.00  0.00    +0.000 S 
ATOM     33  N   UNL     1      16.136   9.810  20.449  0.00  0.00    +0.000 NA
ATOM     34  N   UNL     1      18.173   9.324  21.545  0.00  0.00    +0.000 NA
ATOM     35  N   UNL     1      16.726  11.038  18.497  0.00  0.00    +0.000 N 
ATOM     36  C   UNL     1      16.844   9.241  21.495  0.00  0.00    +0.000 A 
ATOM     37  C   UNL     1      17.009  10.372  19.643  0.00  0.00    +0.000 A 
ATOM     38  H   UNL     1      15.482  11.282  22.349  0.00  0.00    +0.000 HD
ATOM     39  H   UNL     1      15.482  11.282  22.349  0.00  0.00    +0.000 HD
ENDBRANCH  31  36
BRANCH  30  40
ATOM     40  O   UNL     1      15.495  10.560  23.255  0.00  0.00    +0.000 OA
ATOM     41  H   UNL     1      18.817   9.157  23.183  0.00  0.00    +0.000 HD
ENDBRANCH  30  40
ENDBRANCH  28  31
ENDBRANCH  25  27
BRANCH  25  43
ATOM     42  OXT UNL     1      17.433   4.671  18.995  0.00  0.00    +0.000 OA
ATOM     43  C   UNL     1      17.539   4.782  20.210  0.00  0.00    +0.000 C 
BRANCH  43  44
ATOM     44  O   UNL     1      18.724   4.647  20.862  0.00  0.00    +0.000 OA
ATOM     45  H   UNL     1      12.491   5.801  19.778  0.00  0.00    +0.000 HD
ENDBRANCH  43  44
ENDBRANCH  25  43
ENDBRANCH   4  25
TORSDOF 11
ENDMDL
MODEL 18
REMARK minimizedAffinity -6.87368488
REMARK minimizedRMSD -1
REMARK  Name = 170454212
REMARK  11 active torsions:
REMARK  status: ('A' for Active; 'I' for Inactive)
REMARK    1  A    between atoms: O_4  and  C_32
REMARK    2  A    between atoms: O_5  and  C_33
REMARK    3  A    between atoms: O_9  and  N_14
REMARK    4  A    between atoms: N_10  and  C_18
REMARK    5  A    between atoms: N_13  and  CA_31
REMARK    6  A    between atoms: C_26  and  C_27
REMARK    7  A    between atoms: C_28  and  CA_31
REMARK    8  A    between atoms: CA_30  and  C_32
REMARK    9  A    between atoms: CA_31  and  C_33
REMARK   10  A    between atoms: C_34  and  C_35
REMARK   11  A    between atoms: C_35  and  C_36
REMARK                            x       y       z     vdW  Elec       q    Type
REMARK                         _______ _______ _______ _____ _____    ______ ____
ROOT
ATOM      1  S   UNL     1      16.661   9.746  20.606  0.00  0.00    +0.000 S 
ATOM      2  N   UNL     1      16.412   7.072  20.276  0.00  0.00    +0.000 N 
ATOM      3  C   UNL     1      18.683   7.801  20.693  0.00  0.00    +0.000 C 
ATOM      4  C   UNL     1      15.705   8.214  20.817  0.00  0.00    +0.000 C 
ATOM      5  C   UNL     1      18.268   9.161  21.224  0.00  0.00    +0.000 C 
ATOM      6  CA  UNL     1      17.780   6.888  20.267  0.00  0.00    +0.000 C 
ATOM      7  H   UNL     1      19.281   6.445  22.370  0.00  0.00    +0.000 HD
ENDROOT
BRANCH   3  14
ATOM      8  O   UNL     1      23.022   7.327  20.708  0.00  0.00    +0.000 OA
ATOM      9  N   UNL     1      22.851   8.121  18.499  0.00  0.00    +0.000 N 
ATOM     10  C   UNL     1      21.801   8.510  17.583  0.00  0.00    +0.000 C 
ATOM     11  C   UNL     1      20.524   8.571  18.410  0.00  0.00    +0.000 C 
ATOM     12  C   UNL     1      22.390   7.744  19.752  0.00  0.00    +0.000 C 
ATOM     13  C   UNL     1      20.921   7.956  19.714  0.00  0.00    +0.000 C 
ATOM     14  C   UNL     1      20.120   7.612  20.724  0.00  0.00    +0.000 C 
BRANCH   9  16
ATOM     15  N   UNL     1      25.743   8.016  16.308  0.00  0.00    +0.000 NA
ATOM     16  C   UNL     1      24.218   8.057  18.073  0.00  0.00    +0.000 C 
ATOM     17  C   UNL     1      24.923   9.405  18.093  0.00  0.00    +0.000 C 
ATOM     18  C   UNL     1      24.370   7.608  16.632  0.00  0.00    +0.000 C 
ATOM     19  C   UNL     1      25.918   9.332  16.938  0.00  0.00    +0.000 C 
ATOM     20  H   UNL     1      19.524   7.162  18.841  0.00  0.00    +0.000 HD
ENDBRANCH   9  16
ENDBRANCH   3  14
BRANCH   6  22
ATOM     21  OXT UNL     1      18.385   4.595  20.439  0.00  0.00    +0.000 OA
ATOM     22  C   UNL     1      18.200   5.571  19.746  0.00  0.00    +0.000 C 
BRANCH  22  23
ATOM     23  O   UNL     1      18.335   5.649  18.409  0.00  0.00    +0.000 OA
ATOM     24  H   UNL     1      15.463   6.521  19.094  0.00  0.00    +0.000 HD
ENDBRANCH  22  23
ENDBRANCH   6  22
BRANCH   4  25
ATOM     25  CA  UNL     1      15.356   7.971  22.281  0.00  0.00    +0.000 C 
BRANCH  25  27
ATOM     26  O   UNL     1      16.996   5.946  23.660  0.00  0.00    +0.000 OA
ATOM     27  N   UNL     1      15.043   6.589  22.523  0.00  0.00    +0.000 N 
ATOM     28  C   UNL     1      15.895   5.727  23.185  0.00  0.00    +0.000 C 
ATOM     29  H   UNL     1      13.491   4.369  21.145  0.00  0.00    +0.000 HD
BRANCH  28  31
ATOM     30  N   UNL     1      14.500   4.043  24.258  0.00  0.00    +0.000 NA
ATOM     31  C   UNL     1      15.333   4.335  23.305  0.00  0.00    +0.000 C 
BRANCH  31  36
ATOM     32  S   UNL     1      16.898   1.463  21.280  0.00  0.00    +0.000 S 
ATOM     33  N   UNL     1      15.112   3.248  21.079  0.00  0.00    +0.000 NA
ATOM     34  N   UNL     1      16.717   2.451  22.619  0.00  0.00    +0.000 NA
ATOM     35  N   UNL     1      15.326   1.872  19.148  0.00  0.00    +0.000 N 
ATOM     36  C   UNL     1      15.743   3.307  22.310  0.00  0.00    +0.000 A 
ATOM     37  C   UNL     1      15.659   2.263  20.402  0.00  0.00    +0.000 A 
ATOM     38  H   UNL     1      16.380   5.382  20.883  0.00  0.00    +0.000 HD
ATOM     39  H   UNL     1      16.380   5.382  20.883  0.00  0.00    +0.000 HD
ENDBRANCH  31  36
BRANCH  30  40
ATOM     40  O   UNL     1      14.089   2.708  24.198  0.00  0.00    +0.000 OA
ATOM     41  H   UNL     1      13.738   4.254  20.958  0.00  0.00    +0.000 HD
ENDBRANCH  30  40
ENDBRANCH  28  31
ENDBRANCH  25  27
BRANCH  25  43
ATOM     42  OXT UNL     1      13.864   9.108  23.831  0.00  0.00    +0.000 OA
ATOM     43  C   UNL     1      14.149   8.787  22.683  0.00  0.00    +0.000 C 
BRANCH  43  44
ATOM     44  O   UNL     1      13.367   9.100  21.616  0.00  0.00    +0.000 OA
ATOM     45  H   UNL     1      18.322   6.892  25.070  0.00  0.00    +0.000 HD
ENDBRANCH  43  44
ENDBRANCH  25  43
ENDBRANCH   4  25
TORSDOF 11
ENDMDL
MODEL 19
REMARK minimizedAffinity -6.78956556
REMARK minimizedRMSD -1
REMARK  Name = 170454212
REMARK  11 active torsions:
REMARK  status: ('A' for Active; 'I' for Inactive)
REMARK    1  A    between atoms: O_4  and  C_32
REMARK    2  A    between atoms: O_5  and  C_33
REMARK    3  A    between atoms: O_9  and  N_14
REMARK    4  A    between atoms: N_10  and  C_18
REMARK    5  A    between atoms: N_13  and  CA_31
REMARK    6  A    between atoms: C_26  and  C_27
REMARK    7  A    between atoms: C_28  and  CA_31
REMARK    8  A    between atoms: CA_30  and  C_32
REMARK    9  A    between atoms: CA_31  and  C_33
REMARK   10  A    between atoms: C_34  and  C_35
REMARK   11  A    between atoms: C_35  and  C_36
REMARK                            x       y       z     vdW  Elec       q    Type
REMARK                         _______ _______ _______ _____ _____    ______ ____
ROOT
ATOM      1  S   UNL     1      16.071   6.304  23.904  0.00  0.00    +0.000 S 
ATOM      2  N   UNL     1      15.254   8.631  22.792  0.00  0.00    +0.000 N 
ATOM      3  C   UNL     1      16.384   7.149  21.246  0.00  0.00    +0.000 C 
ATOM      4  C   UNL     1      14.865   7.660  23.793  0.00  0.00    +0.000 C 
ATOM      5  C   UNL     1      16.233   5.927  22.133  0.00  0.00    +0.000 C 
ATOM      6  CA  UNL     1      15.917   8.366  21.610  0.00  0.00    +0.000 C 
ATOM      7  H   UNL     1      14.924   7.082  19.551  0.00  0.00    +0.000 HD
ENDROOT
BRANCH   3  14
ATOM      8  O   UNL     1      18.495   6.211  17.542  0.00  0.00    +0.000 OA
ATOM      9  N   UNL     1      20.343   7.128  18.675  0.00  0.00    +0.000 N 
ATOM     10  C   UNL     1      20.610   7.750  19.953  0.00  0.00    +0.000 C 
ATOM     11  C   UNL     1      19.356   7.545  20.790  0.00  0.00    +0.000 C 
ATOM     12  C   UNL     1      19.028   6.718  18.515  0.00  0.00    +0.000 C 
ATOM     13  C   UNL     1      18.359   7.021  19.806  0.00  0.00    +0.000 C 
ATOM     14  C   UNL     1      17.050   6.845  19.995  0.00  0.00    +0.000 C 
BRANCH   9  16
ATOM     15  N   UNL     1      22.356   8.004  15.784  0.00  0.00    +0.000 NA
ATOM     16  C   UNL     1      21.357   7.050  17.664  0.00  0.00    +0.000 C 
ATOM     17  C   UNL     1      22.712   7.566  18.123  0.00  0.00    +0.000 C 
ATOM     18  C   UNL     1      21.052   7.909  16.452  0.00  0.00    +0.000 C 
ATOM     19  C   UNL     1      23.337   8.167  16.867  0.00  0.00    +0.000 C 
ATOM     20  H   UNL     1      17.148   7.265  20.045  0.00  0.00    +0.000 HD
ENDBRANCH   9  16
ENDBRANCH   3  14
BRANCH   6  22
ATOM     21  OXT UNL     1      15.377   9.784  19.780  0.00  0.00    +0.000 OA
ATOM     22  C   UNL     1      16.077   9.548  20.739  0.00  0.00    +0.000 C 
BRANCH  22  23
ATOM     23  O   UNL     1      17.106  10.290  21.188  0.00  0.00    +0.000 OA
ATOM     24  H   UNL     1      15.113   9.980  23.514  0.00  0.00    +0.000 HD
ENDBRANCH  22  23
ENDBRANCH   6  22
BRANCH   4  25
ATOM     25  CA  UNL     1      13.463   7.138  23.501  0.00  0.00    +0.000 C 
BRANCH  25  27
ATOM     26  O   UNL     1      12.288   4.575  24.363  0.00  0.00    +0.000 OA
ATOM     27  N   UNL     1      13.506   5.870  22.826  0.00  0.00    +0.000 N 
ATOM     28  C   UNL     1      12.916   4.726  23.327  0.00  0.00    +0.000 C 
ATOM     29  H   UNL     1      15.421   4.363  21.010  0.00  0.00    +0.000 HD
BRANCH  28  31
ATOM     30  N   UNL     1      14.086   3.505  21.576  0.00  0.00    +0.000 NA
ATOM     31  C   UNL     1      13.108   3.532  22.430  0.00  0.00    +0.000 C 
BRANCH  31  36
ATOM     32  S   UNL     1      10.231   0.986  22.239  0.00  0.00    +0.000 S 
ATOM     33  N   UNL     1      12.484   1.309  23.352  0.00  0.00    +0.000 NA
ATOM     34  N   UNL     1      11.017   2.416  21.868  0.00  0.00    +0.000 NA
ATOM     35  N   UNL     1      11.412  -0.741  23.916  0.00  0.00    +0.000 N 
ATOM     36  C   UNL     1      12.163   2.388  22.546  0.00  0.00    +0.000 A 
ATOM     37  C   UNL     1      11.491   0.451  23.275  0.00  0.00    +0.000 A 
ATOM     38  H   UNL     1      12.094   3.093  25.045  0.00  0.00    +0.000 HD
ATOM     39  H   UNL     1      12.094   3.093  25.045  0.00  0.00    +0.000 HD
ENDBRANCH  31  36
BRANCH  30  40
ATOM     40  O   UNL     1      14.100   2.315  20.842  0.00  0.00    +0.000 OA
ATOM     41  H   UNL     1      13.836   1.587  24.365  0.00  0.00    +0.000 HD
ENDBRANCH  30  40
ENDBRANCH  28  31
ENDBRANCH  25  27
BRANCH  25  43
ATOM     42  OXT UNL     1      12.614   9.308  22.800  0.00  0.00    +0.000 OA
ATOM     43  C   UNL     1      12.711   8.101  22.611  0.00  0.00    +0.000 C 
BRANCH  43  44
ATOM     44  O   UNL     1      12.100   7.466  21.576  0.00  0.00    +0.000 OA
ATOM     45  H   UNL     1      15.793   8.484  26.741  0.00  0.00    +0.000 HD
ENDBRANCH  43  44
ENDBRANCH  25  43
ENDBRANCH   4  25
TORSDOF 11
ENDMDL
MODEL 20
REMARK minimizedAffinity -6.71572685
REMARK minimizedRMSD -1
REMARK  Name = 170454212
REMARK  11 active torsions:
REMARK  status: ('A' for Active; 'I' for Inactive)
REMARK    1  A    between atoms: O_4  and  C_32
REMARK    2  A    between atoms: O_5  and  C_33
REMARK    3  A    between atoms: O_9  and  N_14
REMARK    4  A    between atoms: N_10  and  C_18
REMARK    5  A    between atoms: N_13  and  CA_31
REMARK    6  A    between atoms: C_26  and  C_27
REMARK    7  A    between atoms: C_28  and  CA_31
REMARK    8  A    between atoms: CA_30  and  C_32
REMARK    9  A    between atoms: CA_31  and  C_33
REMARK   10  A    between atoms: C_34  and  C_35
REMARK   11  A    between atoms: C_35  and  C_36
REMARK                            x       y       z     vdW  Elec       q    Type
REMARK                         _______ _______ _______ _____ _____    ______ ____
ROOT
ATOM      1  S   UNL     1      22.461   6.830  18.827  0.00  0.00    +0.000 S 
ATOM      2  N   UNL     1      21.044   4.602  18.237  0.00  0.00    +0.000 N 
ATOM      3  C   UNL     1      19.674   6.508  18.834  0.00  0.00    +0.000 C 
ATOM      4  C   UNL     1      22.254   5.303  17.862  0.00  0.00    +0.000 C 
ATOM      5  C   UNL     1      20.789   7.516  18.631  0.00  0.00    +0.000 C 
ATOM      6  CA  UNL     1      19.858   5.180  18.642  0.00  0.00    +0.000 C 
ATOM      7  H   UNL     1      18.231   6.568  17.124  0.00  0.00    +0.000 HD
ENDROOT
BRANCH   3  14
ATOM      8  O   UNL     1      15.968   8.422  20.123  0.00  0.00    +0.000 OA
ATOM      9  N   UNL     1      16.579   7.578  22.234  0.00  0.00    +0.000 N 
ATOM     10  C   UNL     1      17.639   6.769  22.795  0.00  0.00    +0.000 C 
ATOM     11  C   UNL     1      18.686   6.632  21.698  0.00  0.00    +0.000 C 
ATOM     12  C   UNL     1      16.717   7.820  20.876  0.00  0.00    +0.000 C 
ATOM     13  C   UNL     1      18.003   7.186  20.489  0.00  0.00    +0.000 C 
ATOM     14  C   UNL     1      18.427   7.135  19.225  0.00  0.00    +0.000 C 
BRANCH   9  16
ATOM     15  N   UNL     1      13.797   9.572  23.446  0.00  0.00    +0.000 NA
ATOM     16  C   UNL     1      15.461   7.989  23.032  0.00  0.00    +0.000 C 
ATOM     17  C   UNL     1      14.149   7.340  22.619  0.00  0.00    +0.000 C 
ATOM     18  C   UNL     1      15.164   9.472  22.919  0.00  0.00    +0.000 C 
ATOM     19  C   UNL     1      13.089   8.396  22.917  0.00  0.00    +0.000 C 
ATOM     20  H   UNL     1      19.737   7.716  20.782  0.00  0.00    +0.000 HD
ENDBRANCH   9  16
ENDBRANCH   3  14
BRANCH   6  22
ATOM     21  OXT UNL     1      17.885   3.994  18.046  0.00  0.00    +0.000 OA
ATOM     22  C   UNL     1      18.763   4.211  18.851  0.00  0.00    +0.000 C 
BRANCH  22  23
ATOM     23  O   UNL     1      18.912   3.631  20.056  0.00  0.00    +0.000 OA
ATOM     24  H   UNL     1      21.513   3.153  18.478  0.00  0.00    +0.000 HD
ENDBRANCH  22  23
ENDBRANCH   6  22
BRANCH   4  25
ATOM     25  CA  UNL     1      22.255   5.586  16.364  0.00  0.00    +0.000 C 
BRANCH  25  27
ATOM     26  O   UNL     1      20.227   4.170  14.760  0.00  0.00    +0.000 OA
ATOM     27  N   UNL     1      22.411   4.378  15.602  0.00  0.00    +0.000 N 
ATOM     28  C   UNL     1      21.382   3.800  14.884  0.00  0.00    +0.000 C 
ATOM     29  H   UNL     1      24.041   1.818  15.770  0.00  0.00    +0.000 HD
BRANCH  28  31
ATOM     30  N   UNL     1      22.249   1.524  14.855  0.00  0.00    +0.000 NA
ATOM     31  C   UNL     1      21.805   2.539  14.177  0.00  0.00    +0.000 C 
BRANCH  31  36
ATOM     32  S   UNL     1      22.243   2.684  10.358  0.00  0.00    +0.000 S 
ATOM     33  N   UNL     1      20.549   1.979  12.105  0.00  0.00    +0.000 NA
ATOM     34  N   UNL     1      22.718   2.905  11.947  0.00  0.00    +0.000 NA
ATOM     35  N   UNL     1      19.823   1.643   9.863  0.00  0.00    +0.000 N 
ATOM     36  C   UNL     1      21.699   2.478  12.693  0.00  0.00    +0.000 A 
ATOM     37  C   UNL     1      20.717   2.037  10.802  0.00  0.00    +0.000 A 
ATOM     38  H   UNL     1      19.722   4.119  13.072  0.00  0.00    +0.000 HD
ATOM     39  H   UNL     1      19.722   4.119  13.072  0.00  0.00    +0.000 HD
ENDBRANCH  31  36
BRANCH  30  40
ATOM     40  O   UNL     1      22.583   0.451  14.023  0.00  0.00    +0.000 OA
ATOM     41  H   UNL     1      19.286   1.662  13.204  0.00  0.00    +0.000 HD
ENDBRANCH  30  40
ENDBRANCH  28  31
ENDBRANCH  25  27
BRANCH  25  43
ATOM     42  OXT UNL     1      24.586   6.258  16.171  0.00  0.00    +0.000 OA
ATOM     43  C   UNL     1      23.399   6.505  15.997  0.00  0.00    +0.000 C 
BRANCH  43  44
ATOM     44  O   UNL     1      22.959   7.682  15.480  0.00  0.00    +0.000 OA
ATOM     45  H   UNL     1      22.930   1.675  17.774  0.00  0.00    +0.000 HD
ENDBRANCH  43  44
ENDBRANCH  25  43
ENDBRANCH   4  25
TORSDOF 11
ENDMDL
