MODEL 1
REMARK minimizedAffinity -8.46317482
REMARK minimizedRMSD -1
REMARK  Name = 57278977
REMARK  12 active torsions:
REMARK  status: ('A' for Active; 'I' for Inactive)
REMARK    1  A    between atoms: S_2  and  C_22
REMARK    2  A    between atoms: S_2  and  C_27
REMARK    3  A    between atoms: O_5  and  C_23
REMARK    4  A    between atoms: O_8  and  N_12
REMARK    5  A    between atoms: O_8  and  C_32
REMARK    6  A    between atoms: N_11  and  CA_17
REMARK    7  A    between atoms: CA_19  and  C_23
REMARK    8  A    between atoms: C_20  and  C_22
REMARK    9  A    between atoms: C_24  and  C_25
REMARK   10  A    between atoms: C_25  and  C_26
REMARK   11  A    between atoms: C_29  and  C_31
REMARK   12  A    between atoms: C_32  and  C_35
REMARK                            x       y       z     vdW  Elec       q    Type
REMARK                         _______ _______ _______ _____ _____    ______ ____
ROOT
ATOM      1  S   UNL     1      19.838   7.290  20.889  0.00  0.00    +0.000 S 
ATOM      2  O   UNL     1      16.414  10.424  21.189  0.00  0.00    +0.000 OA
ATOM      3  N   UNL     1      17.897   8.932  20.123  0.00  0.00    +0.000 N 
ATOM      4  C   UNL     1      18.070   7.606  20.686  0.00  0.00    +0.000 C 
ATOM      5  CA  UNL     1      17.322   8.139  21.927  0.00  0.00    +0.000 C 
ATOM      6  C   UNL     1      17.049   9.403  21.063  0.00  0.00    +0.000 C 
ATOM      7  CA  UNL     1      18.508   9.355  18.986  0.00  0.00    +0.000 C 
ATOM      8  C   UNL     1      19.548   8.677  18.447  0.00  0.00    +0.000 C 
ATOM      9  C   UNL     1      20.186   7.456  19.105  0.00  0.00    +0.000 C 
ENDROOT
BRANCH   5  11
ATOM     10  O   UNL     1      15.190   8.885  23.820  0.00  0.00    +0.000 OA
ATOM     11  N   UNL     1      16.119   7.384  22.272  0.00  0.00    +0.000 N 
ATOM     12  C   UNL     1      15.183   7.844  23.184  0.00  0.00    +0.000 C 
ATOM     13  H   UNL     1      18.815   6.944  23.087  0.00  0.00    +0.000 HD
BRANCH  12  15
ATOM     14  N   UNL     1      13.311   6.527  22.353  0.00  0.00    +0.000 NA
ATOM     15  C   UNL     1      14.028   6.896  23.372  0.00  0.00    +0.000 C 
BRANCH  15  20
ATOM     16  S   UNL     1      13.484   4.935  26.797  0.00  0.00    +0.000 S 
ATOM     17  O   UNL     1      11.840   9.289  27.534  0.00  0.00    +0.000 OA
ATOM     18  N   UNL     1      13.135   7.235  25.669  0.00  0.00    +0.000 NA
ATOM     19  N   UNL     1      12.417   7.026  27.960  0.00  0.00    +0.000 N 
ATOM     20  C   UNL     1      13.721   6.399  24.739  0.00  0.00    +0.000 A 
ATOM     21  C   UNL     1      13.985   5.115  25.166  0.00  0.00    +0.000 A 
ATOM     22  C   UNL     1      12.963   6.570  26.791  0.00  0.00    +0.000 A 
ATOM     23  C   UNL     1      11.907   8.305  28.256  0.00  0.00    +0.000 C 
ATOM     24  H   UNL     1      11.394   3.323  21.555  0.00  0.00    +0.000 HD
ENDBRANCH  15  20
BRANCH  14  25
ATOM     25  O   UNL     1      12.283   5.652  22.730  0.00  0.00    +0.000 OA
BRANCH  25  26
ATOM     26  C   UNL     1      12.542   4.387  22.141  0.00  0.00    +0.000 C 
BRANCH  26  27
ATOM     27  C   UNL     1      11.561   3.398  22.677  0.00  0.00    +0.000 C 
ATOM     28  C   UNL     1      10.866   3.572  23.806  0.00  0.00    +0.000 C 
ENDBRANCH  26  27
ENDBRANCH  25  26
ENDBRANCH  14  25
ENDBRANCH  12  15
ENDBRANCH   5  11
BRANCH   7  30
ATOM     29  OXT UNL     1      17.134  10.701  17.589  0.00  0.00    +0.000 OA
ATOM     30  C   UNL     1      18.030  10.619  18.403  0.00  0.00    +0.000 C 
BRANCH  30  31
ATOM     31  O   UNL     1      18.739  11.644  18.916  0.00  0.00    +0.000 OA
ATOM     32  H   UNL     1      20.341   9.035  19.964  0.00  0.00    +0.000 HD
ENDBRANCH  30  31
ENDBRANCH   7  30
BRANCH   8  33
ATOM     33  C   UNL     1      20.224   9.036  17.145  0.00  0.00    +0.000 C 
BRANCH  33  34
ATOM     34  S   UNL     1      21.255   7.661  16.609  0.00  0.00    +0.000 S 
BRANCH  34  35
ATOM     35  C   UNL     1      22.815   8.275  17.003  0.00  0.00    +0.000 C 
ATOM     36  C   UNL     1      23.835   8.223  16.135  0.00  0.00    +0.000 C 
BRANCH  36  38
ATOM     37  N   UNL     1      27.044  10.135  15.753  0.00  0.00    +0.000 NA
ATOM     38  C   UNL     1      25.196   8.719  16.404  0.00  0.00    +0.000 A 
ATOM     39  C   UNL     1      25.913   8.278  17.510  0.00  0.00    +0.000 A 
ATOM     40  C   UNL     1      25.800   9.640  15.563  0.00  0.00    +0.000 A 
ATOM     41  C   UNL     1      27.196   8.765  17.740  0.00  0.00    +0.000 A 
ATOM     42  C   UNL     1      27.710   9.684  16.839  0.00  0.00    +0.000 A 
ENDBRANCH  36  38
ENDBRANCH  34  35
ENDBRANCH  33  34
ENDBRANCH   8  33
TORSDOF 12
ENDMDL
MODEL 2
REMARK minimizedAffinity -8.43630886
REMARK minimizedRMSD -1
REMARK  Name = 57278977
REMARK  12 active torsions:
REMARK  status: ('A' for Active; 'I' for Inactive)
REMARK    1  A    between atoms: S_2  and  C_22
REMARK    2  A    between atoms: S_2  and  C_27
REMARK    3  A    between atoms: O_5  and  C_23
REMARK    4  A    between atoms: O_8  and  N_12
REMARK    5  A    between atoms: O_8  and  C_32
REMARK    6  A    between atoms: N_11  and  CA_17
REMARK    7  A    between atoms: CA_19  and  C_23
REMARK    8  A    between atoms: C_20  and  C_22
REMARK    9  A    between atoms: C_24  and  C_25
REMARK   10  A    between atoms: C_25  and  C_26
REMARK   11  A    between atoms: C_29  and  C_31
REMARK   12  A    between atoms: C_32  and  C_35
REMARK                            x       y       z     vdW  Elec       q    Type
REMARK                         _______ _______ _______ _____ _____    ______ ____
ROOT
ATOM      1  S   UNL     1      19.895   7.204  20.971  0.00  0.00    +0.000 S 
ATOM      2  O   UNL     1      16.488  10.363  21.190  0.00  0.00    +0.000 OA
ATOM      3  N   UNL     1      17.976   8.849  20.161  0.00  0.00    +0.000 N 
ATOM      4  C   UNL     1      18.132   7.529  20.741  0.00  0.00    +0.000 C 
ATOM      5  CA  UNL     1      17.371   8.081  21.966  0.00  0.00    +0.000 C 
ATOM      6  C   UNL     1      17.118   9.337  21.084  0.00  0.00    +0.000 C 
ATOM      7  CA  UNL     1      18.604   9.256  19.027  0.00  0.00    +0.000 C 
ATOM      8  C   UNL     1      19.646   8.564  18.510  0.00  0.00    +0.000 C 
ATOM      9  C   UNL     1      20.268   7.347  19.190  0.00  0.00    +0.000 C 
ENDROOT
BRANCH   5  11
ATOM     10  O   UNL     1      15.257   8.828  23.878  0.00  0.00    +0.000 OA
ATOM     11  N   UNL     1      16.159   7.338  22.304  0.00  0.00    +0.000 N 
ATOM     12  C   UNL     1      15.233   7.796  23.226  0.00  0.00    +0.000 C 
ATOM     13  H   UNL     1      18.851   6.847  23.102  0.00  0.00    +0.000 HD
BRANCH  12  15
ATOM     14  N   UNL     1      13.356   6.499  22.377  0.00  0.00    +0.000 NA
ATOM     15  C   UNL     1      14.065   6.862  23.404  0.00  0.00    +0.000 C 
BRANCH  15  20
ATOM     16  S   UNL     1      13.462   4.918  26.828  0.00  0.00    +0.000 S 
ATOM     17  O   UNL     1      11.851   9.290  27.532  0.00  0.00    +0.000 OA
ATOM     18  N   UNL     1      13.148   7.218  25.689  0.00  0.00    +0.000 NA
ATOM     19  N   UNL     1      12.401   7.023  27.972  0.00  0.00    +0.000 N 
ATOM     20  C   UNL     1      13.737   6.373  24.769  0.00  0.00    +0.000 A 
ATOM     21  C   UNL     1      13.983   5.088  25.203  0.00  0.00    +0.000 A 
ATOM     22  C   UNL     1      12.957   6.558  26.811  0.00  0.00    +0.000 A 
ATOM     23  C   UNL     1      11.900   8.308  28.258  0.00  0.00    +0.000 C 
ATOM     24  H   UNL     1      11.417   3.310  21.567  0.00  0.00    +0.000 HD
ENDBRANCH  15  20
BRANCH  14  25
ATOM     25  O   UNL     1      12.313   5.637  22.745  0.00  0.00    +0.000 OA
BRANCH  25  26
ATOM     26  C   UNL     1      12.547   4.377  22.136  0.00  0.00    +0.000 C 
BRANCH  26  27
ATOM     27  C   UNL     1      11.644   3.366  22.761  0.00  0.00    +0.000 C 
ATOM     28  C   UNL     1      11.018   2.401  22.079  0.00  0.00    +0.000 C 
ENDBRANCH  26  27
ENDBRANCH  25  26
ENDBRANCH  14  25
ENDBRANCH  12  15
ENDBRANCH   5  11
BRANCH   7  30
ATOM     29  OXT UNL     1      17.241  10.597  17.615  0.00  0.00    +0.000 OA
ATOM     30  C   UNL     1      18.142  10.515  18.424  0.00  0.00    +0.000 C 
BRANCH  30  31
ATOM     31  O   UNL     1      18.871  11.538  18.912  0.00  0.00    +0.000 OA
ATOM     32  H   UNL     1      20.439   8.924  19.998  0.00  0.00    +0.000 HD
ENDBRANCH  30  31
ENDBRANCH   7  30
BRANCH   8  33
ATOM     33  C   UNL     1      20.342   8.905  17.213  0.00  0.00    +0.000 C 
BRANCH  33  34
ATOM     34  S   UNL     1      21.856   7.940  17.078  0.00  0.00    +0.000 S 
BRANCH  34  35
ATOM     35  C   UNL     1      22.904   8.873  18.078  0.00  0.00    +0.000 C 
ATOM     36  C   UNL     1      23.469   8.360  19.180  0.00  0.00    +0.000 C 
BRANCH  36  38
ATOM     37  N   UNL     1      25.571  11.132  20.595  0.00  0.00    +0.000 NA
ATOM     38  C   UNL     1      24.366   9.099  20.086  0.00  0.00    +0.000 A 
ATOM     39  C   UNL     1      24.853   8.510  21.248  0.00  0.00    +0.000 A 
ATOM     40  C   UNL     1      24.752  10.400  19.807  0.00  0.00    +0.000 A 
ATOM     41  C   UNL     1      25.698   9.232  22.085  0.00  0.00    +0.000 A 
ATOM     42  C   UNL     1      26.023  10.528  21.716  0.00  0.00    +0.000 A 
ENDBRANCH  36  38
ENDBRANCH  34  35
ENDBRANCH  33  34
ENDBRANCH   8  33
TORSDOF 12
ENDMDL
MODEL 3
REMARK minimizedAffinity -8.00092697
REMARK minimizedRMSD -1
REMARK  Name = 57278977
REMARK  12 active torsions:
REMARK  status: ('A' for Active; 'I' for Inactive)
REMARK    1  A    between atoms: S_2  and  C_22
REMARK    2  A    between atoms: S_2  and  C_27
REMARK    3  A    between atoms: O_5  and  C_23
REMARK    4  A    between atoms: O_8  and  N_12
REMARK    5  A    between atoms: O_8  and  C_32
REMARK    6  A    between atoms: N_11  and  CA_17
REMARK    7  A    between atoms: CA_19  and  C_23
REMARK    8  A    between atoms: C_20  and  C_22
REMARK    9  A    between atoms: C_24  and  C_25
REMARK   10  A    between atoms: C_25  and  C_26
REMARK   11  A    between atoms: C_29  and  C_31
REMARK   12  A    between atoms: C_32  and  C_35
REMARK                            x       y       z     vdW  Elec       q    Type
REMARK                         _______ _______ _______ _____ _____    ______ ____
ROOT
ATOM      1  S   UNL     1      13.924   4.265  21.432  0.00  0.00    +0.000 S 
ATOM      2  O   UNL     1      12.758   3.574  25.882  0.00  0.00    +0.000 OA
ATOM      3  N   UNL     1      13.425   4.805  23.983  0.00  0.00    +0.000 N 
ATOM      4  C   UNL     1      12.715   4.592  22.735  0.00  0.00    +0.000 C 
ATOM      5  CA  UNL     1      12.087   3.356  23.413  0.00  0.00    +0.000 C 
ATOM      6  C   UNL     1      12.757   3.885  24.714  0.00  0.00    +0.000 C 
ATOM      7  CA  UNL     1      14.427   5.708  24.138  0.00  0.00    +0.000 C 
ATOM      8  C   UNL     1      15.039   6.275  23.072  0.00  0.00    +0.000 C 
ATOM      9  C   UNL     1      14.738   5.887  21.626  0.00  0.00    +0.000 C 
ENDROOT
BRANCH   5  11
ATOM     10  O   UNL     1      10.210   2.129  21.500  0.00  0.00    +0.000 OA
ATOM     11  N   UNL     1      10.626   3.369  23.450  0.00  0.00    +0.000 N 
ATOM     12  C   UNL     1       9.847   2.752  22.485  0.00  0.00    +0.000 C 
ATOM     13  H   UNL     1      12.426   5.454  22.716  0.00  0.00    +0.000 HD
BRANCH  12  15
ATOM     14  N   UNL     1       7.751   3.987  22.399  0.00  0.00    +0.000 NA
ATOM     15  C   UNL     1       8.369   2.896  22.738  0.00  0.00    +0.000 C 
BRANCH  15  20
ATOM     16  S   UNL     1       6.245  -0.304  23.793  0.00  0.00    +0.000 S 
ATOM     17  O   UNL     1       7.729   1.637  27.822  0.00  0.00    +0.000 OA
ATOM     18  N   UNL     1       7.618   1.660  24.762  0.00  0.00    +0.000 NA
ATOM     19  N   UNL     1       6.643   0.127  26.346  0.00  0.00    +0.000 N 
ATOM     20  C   UNL     1       7.639   1.775  23.386  0.00  0.00    +0.000 A 
ATOM     21  C   UNL     1       6.950   0.804  22.690  0.00  0.00    +0.000 A 
ATOM     22  C   UNL     1       6.912   0.600  25.090  0.00  0.00    +0.000 A 
ATOM     23  C   UNL     1       7.048   0.648  27.590  0.00  0.00    +0.000 C 
ATOM     24  H   UNL     1       4.317   4.159  20.505  0.00  0.00    +0.000 HD
ENDBRANCH  15  20
BRANCH  14  25
ATOM     25  O   UNL     1       6.388   3.933  22.722  0.00  0.00    +0.000 OA
BRANCH  25  26
ATOM     26  C   UNL     1       6.124   4.935  23.692  0.00  0.00    +0.000 C 
BRANCH  26  27
ATOM     27  C   UNL     1       5.490   4.295  24.882  0.00  0.00    +0.000 C 
ATOM     28  C   UNL     1       5.853   4.542  26.145  0.00  0.00    +0.000 C 
ENDBRANCH  26  27
ENDBRANCH  25  26
ENDBRANCH  14  25
ENDBRANCH  12  15
ENDBRANCH   5  11
BRANCH   7  30
ATOM     29  OXT UNL     1      15.779   5.428  26.073  0.00  0.00    +0.000 OA
ATOM     30  C   UNL     1      14.861   5.992  25.514  0.00  0.00    +0.000 C 
BRANCH  30  31
ATOM     31  O   UNL     1      14.085   6.963  26.037  0.00  0.00    +0.000 OA
ATOM     32  H   UNL     1      12.579   6.215  23.272  0.00  0.00    +0.000 HD
ENDBRANCH  30  31
ENDBRANCH   7  30
BRANCH   8  33
ATOM     33  C   UNL     1      16.101   7.345  23.162  0.00  0.00    +0.000 C 
BRANCH  33  34
ATOM     34  S   UNL     1      15.378   8.940  22.745  0.00  0.00    +0.000 S 
BRANCH  34  35
ATOM     35  C   UNL     1      16.450   9.447  21.497  0.00  0.00    +0.000 C 
ATOM     36  C   UNL     1      16.928   8.588  20.585  0.00  0.00    +0.000 C 
BRANCH  36  38
ATOM     37  N   UNL     1      18.734  10.633  18.005  0.00  0.00    +0.000 NA
ATOM     38  C   UNL     1      17.854   8.946  19.496  0.00  0.00    +0.000 A 
ATOM     39  C   UNL     1      18.698   7.996  18.933  0.00  0.00    +0.000 A 
ATOM     40  C   UNL     1      17.909  10.239  19.001  0.00  0.00    +0.000 A 
ATOM     41  C   UNL     1      19.562   8.364  17.906  0.00  0.00    +0.000 A 
ATOM     42  C   UNL     1      19.541   9.683  17.483  0.00  0.00    +0.000 A 
ENDBRANCH  36  38
ENDBRANCH  34  35
ENDBRANCH  33  34
ENDBRANCH   8  33
TORSDOF 12
ENDMDL
MODEL 4
REMARK minimizedAffinity -7.99193811
REMARK minimizedRMSD -1
REMARK  Name = 57278977
REMARK  12 active torsions:
REMARK  status: ('A' for Active; 'I' for Inactive)
REMARK    1  A    between atoms: S_2  and  C_22
REMARK    2  A    between atoms: S_2  and  C_27
REMARK    3  A    between atoms: O_5  and  C_23
REMARK    4  A    between atoms: O_8  and  N_12
REMARK    5  A    between atoms: O_8  and  C_32
REMARK    6  A    between atoms: N_11  and  CA_17
REMARK    7  A    between atoms: CA_19  and  C_23
REMARK    8  A    between atoms: C_20  and  C_22
REMARK    9  A    between atoms: C_24  and  C_25
REMARK   10  A    between atoms: C_25  and  C_26
REMARK   11  A    between atoms: C_29  and  C_31
REMARK   12  A    between atoms: C_32  and  C_35
REMARK                            x       y       z     vdW  Elec       q    Type
REMARK                         _______ _______ _______ _____ _____    ______ ____
ROOT
ATOM      1  S   UNL     1      16.856   5.691  23.792  0.00  0.00    +0.000 S 
ATOM      2  O   UNL     1      13.368   8.764  23.661  0.00  0.00    +0.000 OA
ATOM      3  N   UNL     1      15.255   7.595  22.865  0.00  0.00    +0.000 N 
ATOM      4  C   UNL     1      15.291   6.152  23.016  0.00  0.00    +0.000 C 
ATOM      5  CA  UNL     1      14.080   6.316  23.960  0.00  0.00    +0.000 C 
ATOM      6  C   UNL     1      14.075   7.799  23.490  0.00  0.00    +0.000 C 
ATOM      7  CA  UNL     1      16.228   8.314  22.248  0.00  0.00    +0.000 C 
ATOM      8  C   UNL     1      17.443   7.778  21.983  0.00  0.00    +0.000 C 
ATOM      9  C   UNL     1      17.861   6.380  22.432  0.00  0.00    +0.000 C 
ENDROOT
BRANCH   5  11
ATOM     10  O   UNL     1      12.901   3.953  25.266  0.00  0.00    +0.000 OA
ATOM     11  N   UNL     1      12.896   5.560  23.556  0.00  0.00    +0.000 N 
ATOM     12  C   UNL     1      12.437   4.458  24.257  0.00  0.00    +0.000 C 
ATOM     13  H   UNL     1      15.513   5.547  22.425  0.00  0.00    +0.000 HD
BRANCH  12  15
ATOM     14  N   UNL     1      10.274   4.608  23.149  0.00  0.00    +0.000 NA
ATOM     15  C   UNL     1      11.199   3.848  23.653  0.00  0.00    +0.000 C 
BRANCH  15  20
ATOM     16  S   UNL     1      10.361  -0.007  24.202  0.00  0.00    +0.000 S 
ATOM     17  O   UNL     1      13.411   0.145  20.614  0.00  0.00    +0.000 OA
ATOM     18  N   UNL     1      11.755   1.602  22.737  0.00  0.00    +0.000 NA
ATOM     19  N   UNL     1      11.942  -0.751  22.249  0.00  0.00    +0.000 N 
ATOM     20  C   UNL     1      11.056   2.368  23.650  0.00  0.00    +0.000 A 
ATOM     21  C   UNL     1      10.249   1.673  24.525  0.00  0.00    +0.000 A 
ATOM     22  C   UNL     1      11.466   0.335  22.935  0.00  0.00    +0.000 A 
ATOM     23  C   UNL     1      12.848  -0.786  21.173  0.00  0.00    +0.000 C 
ATOM     24  H   UNL     1      12.513   3.645  28.261  0.00  0.00    +0.000 HD
ENDBRANCH  15  20
BRANCH  14  25
ATOM     25  O   UNL     1       9.204   3.857  22.643  0.00  0.00    +0.000 OA
BRANCH  25  26
ATOM     26  C   UNL     1       8.019   4.625  22.789  0.00  0.00    +0.000 C 
BRANCH  26  27
ATOM     27  C   UNL     1       7.159   3.988  23.829  0.00  0.00    +0.000 C 
ATOM     28  C   UNL     1       6.171   4.621  24.471  0.00  0.00    +0.000 C 
ENDBRANCH  26  27
ENDBRANCH  25  26
ENDBRANCH  14  25
ENDBRANCH  12  15
ENDBRANCH   5  11
BRANCH   7  30
ATOM     29  OXT UNL     1      15.989  10.625  22.747  0.00  0.00    +0.000 OA
ATOM     30  C   UNL     1      15.925   9.720  21.941  0.00  0.00    +0.000 C 
BRANCH  30  31
ATOM     31  O   UNL     1      15.573   9.829  20.645  0.00  0.00    +0.000 OA
ATOM     32  H   UNL     1      15.658   6.630  21.125  0.00  0.00    +0.000 HD
ENDBRANCH  30  31
ENDBRANCH   7  30
BRANCH   8  33
ATOM     33  C   UNL     1      18.545   8.484  21.230  0.00  0.00    +0.000 C 
BRANCH  33  34
ATOM     34  S   UNL     1      18.366   8.160  19.468  0.00  0.00    +0.000 S 
BRANCH  34  35
ATOM     35  C   UNL     1      19.951   8.554  18.921  0.00  0.00    +0.000 C 
ATOM     36  C   UNL     1      21.001   8.576  19.755  0.00  0.00    +0.000 C 
BRANCH  36  38
ATOM     37  N   UNL     1      24.057   9.050  17.625  0.00  0.00    +0.000 NA
ATOM     38  C   UNL     1      22.381   8.911  19.361  0.00  0.00    +0.000 A 
ATOM     39  C   UNL     1      23.295   9.389  20.293  0.00  0.00    +0.000 A 
ATOM     40  C   UNL     1      22.808   8.760  18.052  0.00  0.00    +0.000 A 
ATOM     41  C   UNL     1      24.591   9.699  19.893  0.00  0.00    +0.000 A 
ATOM     42  C   UNL     1      24.918   9.513  18.559  0.00  0.00    +0.000 A 
ENDBRANCH  36  38
ENDBRANCH  34  35
ENDBRANCH  33  34
ENDBRANCH   8  33
TORSDOF 12
ENDMDL
MODEL 5
REMARK minimizedAffinity -7.9650178
REMARK minimizedRMSD -1
REMARK  Name = 57278977
REMARK  12 active torsions:
REMARK  status: ('A' for Active; 'I' for Inactive)
REMARK    1  A    between atoms: S_2  and  C_22
REMARK    2  A    between atoms: S_2  and  C_27
REMARK    3  A    between atoms: O_5  and  C_23
REMARK    4  A    between atoms: O_8  and  N_12
REMARK    5  A    between atoms: O_8  and  C_32
REMARK    6  A    between atoms: N_11  and  CA_17
REMARK    7  A    between atoms: CA_19  and  C_23
REMARK    8  A    between atoms: C_20  and  C_22
REMARK    9  A    between atoms: C_24  and  C_25
REMARK   10  A    between atoms: C_25  and  C_26
REMARK   11  A    between atoms: C_29  and  C_31
REMARK   12  A    between atoms: C_32  and  C_35
REMARK                            x       y       z     vdW  Elec       q    Type
REMARK                         _______ _______ _______ _____ _____    ______ ____
ROOT
ATOM      1  S   UNL     1      16.517   5.367  22.410  0.00  0.00    +0.000 S 
ATOM      2  O   UNL     1      13.494   7.330  25.350  0.00  0.00    +0.000 OA
ATOM      3  N   UNL     1      14.543   6.916  23.279  0.00  0.00    +0.000 N 
ATOM      4  C   UNL     1      14.782   5.539  22.886  0.00  0.00    +0.000 C 
ATOM      5  CA  UNL     1      14.430   5.163  24.341  0.00  0.00    +0.000 C 
ATOM      6  C   UNL     1      14.010   6.653  24.492  0.00  0.00    +0.000 C 
ATOM      7  CA  UNL     1      14.848   7.987  22.502  0.00  0.00    +0.000 C 
ATOM      8  C   UNL     1      15.662   7.872  21.426  0.00  0.00    +0.000 C 
ATOM      9  C   UNL     1      16.380   6.577  21.050  0.00  0.00    +0.000 C 
ENDROOT
BRANCH   5  11
ATOM     10  O   UNL     1      13.659   3.565  26.694  0.00  0.00    +0.000 OA
ATOM     11  N   UNL     1      13.322   4.217  24.465  0.00  0.00    +0.000 N 
ATOM     12  C   UNL     1      13.059   3.521  25.633  0.00  0.00    +0.000 C 
ATOM     13  H   UNL     1      15.824   3.893  23.138  0.00  0.00    +0.000 HD
BRANCH  12  15
ATOM     14  N   UNL     1      11.407   1.999  26.571  0.00  0.00    +0.000 NA
ATOM     15  C   UNL     1      11.864   2.611  25.521  0.00  0.00    +0.000 C 
BRANCH  15  20
ATOM     16  S   UNL     1      10.687   1.620  21.846  0.00  0.00    +0.000 S 
ATOM     17  O   UNL     1       7.644   4.898  23.330  0.00  0.00    +0.000 OA
ATOM     18  N   UNL     1      10.108   3.154  23.844  0.00  0.00    +0.000 NA
ATOM     19  N   UNL     1       8.677   3.300  21.910  0.00  0.00    +0.000 N 
ATOM     20  C   UNL     1      11.227   2.422  24.190  0.00  0.00    +0.000 A 
ATOM     21  C   UNL     1      11.688   1.540  23.237  0.00  0.00    +0.000 A 
ATOM     22  C   UNL     1       9.736   2.814  22.630  0.00  0.00    +0.000 A 
ATOM     23  C   UNL     1       7.730   4.272  22.282  0.00  0.00    +0.000 C 
ATOM     24  H   UNL     1      16.005   3.618  23.321  0.00  0.00    +0.000 HD
ENDBRANCH  15  20
BRANCH  14  25
ATOM     25  O   UNL     1      10.300   1.195  26.263  0.00  0.00    +0.000 OA
BRANCH  25  26
ATOM     26  C   UNL     1       9.247   1.536  27.152  0.00  0.00    +0.000 C 
BRANCH  26  27
ATOM     27  C   UNL     1       7.953   1.466  26.412  0.00  0.00    +0.000 C 
ATOM     28  C   UNL     1       7.279   2.538  25.982  0.00  0.00    +0.000 C 
ENDBRANCH  26  27
ENDBRANCH  25  26
ENDBRANCH  14  25
ENDBRANCH  12  15
ENDBRANCH   5  11
BRANCH   7  30
ATOM     29  OXT UNL     1      14.974  10.188  23.389  0.00  0.00    +0.000 OA
ATOM     30  C   UNL     1      14.307   9.289  22.920  0.00  0.00    +0.000 C 
BRANCH  30  31
ATOM     31  O   UNL     1      12.978   9.314  22.697  0.00  0.00    +0.000 OA
ATOM     32  H   UNL     1      13.760   6.216  22.186  0.00  0.00    +0.000 HD
ENDBRANCH  30  31
ENDBRANCH   7  30
BRANCH   8  33
ATOM     33  C   UNL     1      15.982   8.995  20.468  0.00  0.00    +0.000 C 
BRANCH  33  34
ATOM     34  S   UNL     1      17.611   9.659  20.851  0.00  0.00    +0.000 S 
BRANCH  34  35
ATOM     35  C   UNL     1      18.497   9.108  19.480  0.00  0.00    +0.000 C 
ATOM     36  C   UNL     1      19.819   9.297  19.372  0.00  0.00    +0.000 C 
BRANCH  36  38
ATOM     37  N   UNL     1      20.749   8.089  15.940  0.00  0.00    +0.000 NA
ATOM     38  C   UNL     1      20.640   8.862  18.228  0.00  0.00    +0.000 A 
ATOM     39  C   UNL     1      22.026   8.806  18.321  0.00  0.00    +0.000 A 
ATOM     40  C   UNL     1      20.055   8.496  17.026  0.00  0.00    +0.000 A 
ATOM     41  C   UNL     1      22.775   8.392  17.224  0.00  0.00    +0.000 A 
ATOM     42  C   UNL     1      22.094   8.048  16.068  0.00  0.00    +0.000 A 
ENDBRANCH  36  38
ENDBRANCH  34  35
ENDBRANCH  33  34
ENDBRANCH   8  33
TORSDOF 12
ENDMDL
MODEL 6
REMARK minimizedAffinity -7.95386839
REMARK minimizedRMSD -1
REMARK  Name = 57278977
REMARK  12 active torsions:
REMARK  status: ('A' for Active; 'I' for Inactive)
REMARK    1  A    between atoms: S_2  and  C_22
REMARK    2  A    between atoms: S_2  and  C_27
REMARK    3  A    between atoms: O_5  and  C_23
REMARK    4  A    between atoms: O_8  and  N_12
REMARK    5  A    between atoms: O_8  and  C_32
REMARK    6  A    between atoms: N_11  and  CA_17
REMARK    7  A    between atoms: CA_19  and  C_23
REMARK    8  A    between atoms: C_20  and  C_22
REMARK    9  A    between atoms: C_24  and  C_25
REMARK   10  A    between atoms: C_25  and  C_26
REMARK   11  A    between atoms: C_29  and  C_31
REMARK   12  A    between atoms: C_32  and  C_35
REMARK                            x       y       z     vdW  Elec       q    Type
REMARK                         _______ _______ _______ _____ _____    ______ ____
ROOT
ATOM      1  S   UNL     1      18.684   6.729  19.176  0.00  0.00    +0.000 S 
ATOM      2  O   UNL     1      19.717  10.403  16.518  0.00  0.00    +0.000 OA
ATOM      3  N   UNL     1      18.947   9.265  18.435  0.00  0.00    +0.000 N 
ATOM      4  C   UNL     1      19.747   8.174  18.961  0.00  0.00    +0.000 C 
ATOM      5  CA  UNL     1      20.546   8.249  17.641  0.00  0.00    +0.000 C 
ATOM      6  C   UNL     1      19.726   9.542  17.365  0.00  0.00    +0.000 C 
ATOM      7  CA  UNL     1      17.796   9.702  19.007  0.00  0.00    +0.000 C 
ATOM      8  C   UNL     1      17.152   8.972  19.947  0.00  0.00    +0.000 C 
ATOM      9  C   UNL     1      17.591   7.572  20.370  0.00  0.00    +0.000 C 
ENDROOT
BRANCH   5  11
ATOM     10  O   UNL     1      22.683   8.029  15.625  0.00  0.00    +0.000 OA
ATOM     11  N   UNL     1      21.978   8.480  17.818  0.00  0.00    +0.000 N 
ATOM     12  C   UNL     1      22.891   8.344  16.786  0.00  0.00    +0.000 C 
ATOM     13  H   UNL     1      20.400   6.251  18.636  0.00  0.00    +0.000 HD
BRANCH  12  15
ATOM     14  N   UNL     1      25.132   9.203  16.379  0.00  0.00    +0.000 NA
ATOM     15  C   UNL     1      24.307   8.638  17.208  0.00  0.00    +0.000 C 
BRANCH  15  20
ATOM     16  S   UNL     1      25.550   6.976  20.607  0.00  0.00    +0.000 S 
ATOM     17  O   UNL     1      24.720  11.502  21.620  0.00  0.00    +0.000 OA
ATOM     18  N   UNL     1      24.761   9.215  19.585  0.00  0.00    +0.000 NA
ATOM     19  N   UNL     1      25.338   9.230  21.925  0.00  0.00    +0.000 N 
ATOM     20  C   UNL     1      24.739   8.267  18.581  0.00  0.00    +0.000 A 
ATOM     21  C   UNL     1      25.132   6.996  18.944  0.00  0.00    +0.000 A 
ATOM     22  C   UNL     1      25.173   8.647  20.697  0.00  0.00    +0.000 A 
ATOM     23  C   UNL     1      25.112  10.567  22.304  0.00  0.00    +0.000 C 
ATOM     24  H   UNL     1      20.963   5.206  17.402  0.00  0.00    +0.000 HD
ENDBRANCH  15  20
BRANCH  14  25
ATOM     25  O   UNL     1      26.398   9.387  16.952  0.00  0.00    +0.000 OA
BRANCH  25  26
ATOM     26  C   UNL     1      27.374   8.966  16.011  0.00  0.00    +0.000 C 
BRANCH  26  27
ATOM     27  C   UNL     1      28.056   7.748  16.539  0.00  0.00    +0.000 C 
ATOM     28  C   UNL     1      27.685   6.498  16.245  0.00  0.00    +0.000 C 
ENDBRANCH  26  27
ENDBRANCH  25  26
ENDBRANCH  14  25
ENDBRANCH  12  15
ENDBRANCH   5  11
BRANCH   7  30
ATOM     29  OXT UNL     1      17.273  12.017  19.133  0.00  0.00    +0.000 OA
ATOM     30  C   UNL     1      17.247  10.974  18.513  0.00  0.00    +0.000 C 
BRANCH  30  31
ATOM     31  O   UNL     1      16.725  10.789  17.285  0.00  0.00    +0.000 OA
ATOM     32  H   UNL     1      17.354   7.777  18.287  0.00  0.00    +0.000 HD
ENDBRANCH  30  31
ENDBRANCH   7  30
BRANCH   8  33
ATOM     33  C   UNL     1      15.916   9.425  20.687  0.00  0.00    +0.000 C 
BRANCH  33  34
ATOM     34  S   UNL     1      16.224   9.354  22.460  0.00  0.00    +0.000 S 
BRANCH  34  35
ATOM     35  C   UNL     1      15.059   8.175  22.927  0.00  0.00    +0.000 C 
ATOM     36  C   UNL     1      15.309   7.279  23.893  0.00  0.00    +0.000 C 
BRANCH  36  38
ATOM     37  N   UNL     1      12.765   4.519  23.766  0.00  0.00    +0.000 NA
ATOM     38  C   UNL     1      14.366   6.238  24.338  0.00  0.00    +0.000 A 
ATOM     39  C   UNL     1      14.173   5.978  25.690  0.00  0.00    +0.000 A 
ATOM     40  C   UNL     1      13.644   5.488  23.424  0.00  0.00    +0.000 A 
ATOM     41  C   UNL     1      13.277   4.989  26.082  0.00  0.00    +0.000 A 
ATOM     42  C   UNL     1      12.605   4.294  25.089  0.00  0.00    +0.000 A 
ENDBRANCH  36  38
ENDBRANCH  34  35
ENDBRANCH  33  34
ENDBRANCH   8  33
TORSDOF 12
ENDMDL
MODEL 7
REMARK minimizedAffinity -7.82328129
REMARK minimizedRMSD -1
REMARK  Name = 57278977
REMARK  12 active torsions:
REMARK  status: ('A' for Active; 'I' for Inactive)
REMARK    1  A    between atoms: S_2  and  C_22
REMARK    2  A    between atoms: S_2  and  C_27
REMARK    3  A    between atoms: O_5  and  C_23
REMARK    4  A    between atoms: O_8  and  N_12
REMARK    5  A    between atoms: O_8  and  C_32
REMARK    6  A    between atoms: N_11  and  CA_17
REMARK    7  A    between atoms: CA_19  and  C_23
REMARK    8  A    between atoms: C_20  and  C_22
REMARK    9  A    between atoms: C_24  and  C_25
REMARK   10  A    between atoms: C_25  and  C_26
REMARK   11  A    between atoms: C_29  and  C_31
REMARK   12  A    between atoms: C_32  and  C_35
REMARK                            x       y       z     vdW  Elec       q    Type
REMARK                         _______ _______ _______ _____ _____    ______ ____
ROOT
ATOM      1  S   UNL     1      17.353   5.535  23.591  0.00  0.00    +0.000 S 
ATOM      2  O   UNL     1      13.373   7.941  23.606  0.00  0.00    +0.000 OA
ATOM      3  N   UNL     1      15.445   7.186  22.768  0.00  0.00    +0.000 N 
ATOM      4  C   UNL     1      15.736   5.766  22.818  0.00  0.00    +0.000 C 
ATOM      5  CA  UNL     1      14.508   5.643  23.747  0.00  0.00    +0.000 C 
ATOM      6  C   UNL     1      14.242   7.132  23.382  0.00  0.00    +0.000 C 
ATOM      7  CA  UNL     1      16.278   8.110  22.223  0.00  0.00    +0.000 C 
ATOM      8  C   UNL     1      17.571   7.819  21.946  0.00  0.00    +0.000 C 
ATOM      9  C   UNL     1      18.228   6.489  22.303  0.00  0.00    +0.000 C 
ENDROOT
BRANCH   5  11
ATOM     10  O   UNL     1      12.437   4.254  25.315  0.00  0.00    +0.000 OA
ATOM     11  N   UNL     1      13.482   4.720  23.266  0.00  0.00    +0.000 N 
ATOM     12  C   UNL     1      12.557   4.126  24.108  0.00  0.00    +0.000 C 
ATOM     13  H   UNL     1      16.269   4.266  23.656  0.00  0.00    +0.000 HD
BRANCH  12  15
ATOM     14  N   UNL     1      11.889   2.768  22.200  0.00  0.00    +0.000 NA
ATOM     15  C   UNL     1      11.597   3.219  23.383  0.00  0.00    +0.000 C 
BRANCH  15  20
ATOM     16  S   UNL     1       8.553   1.745  25.487  0.00  0.00    +0.000 S 
ATOM     17  O   UNL     1       6.744   5.228  22.879  0.00  0.00    +0.000 OA
ATOM     18  N   UNL     1       9.156   3.547  23.735  0.00  0.00    +0.000 NA
ATOM     19  N   UNL     1       6.852   3.438  24.434  0.00  0.00    +0.000 N 
ATOM     20  C   UNL     1      10.313   2.859  24.041  0.00  0.00    +0.000 A 
ATOM     21  C   UNL     1      10.184   1.847  24.969  0.00  0.00    +0.000 A 
ATOM     22  C   UNL     1       8.164   3.046  24.438  0.00  0.00    +0.000 A 
ATOM     23  C   UNL     1       6.239   4.462  23.688  0.00  0.00    +0.000 C 
ATOM     24  H   UNL     1      12.013  -1.310  21.862  0.00  0.00    +0.000 HD
ENDBRANCH  15  20
BRANCH  14  25
ATOM     25  O   UNL     1      10.872   1.950  21.691  0.00  0.00    +0.000 OA
BRANCH  25  26
ATOM     26  C   UNL     1      11.366   0.621  21.626  0.00  0.00    +0.000 C 
BRANCH  26  27
ATOM     27  C   UNL     1      10.236  -0.324  21.869  0.00  0.00    +0.000 C 
ATOM     28  C   UNL     1      10.147  -1.540  21.319  0.00  0.00    +0.000 C 
ENDBRANCH  26  27
ENDBRANCH  25  26
ENDBRANCH  14  25
ENDBRANCH  12  15
ENDBRANCH   5  11
BRANCH   7  30
ATOM     29  OXT UNL     1      15.764  10.348  22.835  0.00  0.00    +0.000 OA
ATOM     30  C   UNL     1      15.731   9.459  22.010  0.00  0.00    +0.000 C 
BRANCH  30  31
ATOM     31  O   UNL     1      15.200   9.535  20.774  0.00  0.00    +0.000 OA
ATOM     32  H   UNL     1      15.824   6.379  21.119  0.00  0.00    +0.000 HD
ENDBRANCH  30  31
ENDBRANCH   7  30
BRANCH   8  33
ATOM     33  C   UNL     1      18.535   8.763  21.267  0.00  0.00    +0.000 C 
BRANCH  33  34
ATOM     34  S   UNL     1      18.435   8.536  19.483  0.00  0.00    +0.000 S 
BRANCH  34  35
ATOM     35  C   UNL     1      20.025   9.015  19.024  0.00  0.00    +0.000 C 
ATOM     36  C   UNL     1      21.113   8.541  19.648  0.00  0.00    +0.000 C 
BRANCH  36  38
ATOM     37  N   UNL     1      24.234   9.139  17.647  0.00  0.00    +0.000 NA
ATOM     38  C   UNL     1      22.500   8.911  19.316  0.00  0.00    +0.000 A 
ATOM     39  C   UNL     1      23.374   9.366  20.297  0.00  0.00    +0.000 A 
ATOM     40  C   UNL     1      22.975   8.816  18.018  0.00  0.00    +0.000 A 
ATOM     41  C   UNL     1      24.678   9.709  19.954  0.00  0.00    +0.000 A 
ATOM     42  C   UNL     1      25.054   9.578  18.627  0.00  0.00    +0.000 A 
ENDBRANCH  36  38
ENDBRANCH  34  35
ENDBRANCH  33  34
ENDBRANCH   8  33
TORSDOF 12
ENDMDL
MODEL 8
REMARK minimizedAffinity -7.80210209
REMARK minimizedRMSD -1
REMARK  Name = 57278977
REMARK  12 active torsions:
REMARK  status: ('A' for Active; 'I' for Inactive)
REMARK    1  A    between atoms: S_2  and  C_22
REMARK    2  A    between atoms: S_2  and  C_27
REMARK    3  A    between atoms: O_5  and  C_23
REMARK    4  A    between atoms: O_8  and  N_12
REMARK    5  A    between atoms: O_8  and  C_32
REMARK    6  A    between atoms: N_11  and  CA_17
REMARK    7  A    between atoms: CA_19  and  C_23
REMARK    8  A    between atoms: C_20  and  C_22
REMARK    9  A    between atoms: C_24  and  C_25
REMARK   10  A    between atoms: C_25  and  C_26
REMARK   11  A    between atoms: C_29  and  C_31
REMARK   12  A    between atoms: C_32  and  C_35
REMARK                            x       y       z     vdW  Elec       q    Type
REMARK                         _______ _______ _______ _____ _____    ______ ____
ROOT
ATOM      1  S   UNL     1      15.566   5.018  20.580  0.00  0.00    +0.000 S 
ATOM      2  O   UNL     1      16.342   9.594  20.265  0.00  0.00    +0.000 OA
ATOM      3  N   UNL     1      15.866   7.546  21.335  0.00  0.00    +0.000 N 
ATOM      4  C   UNL     1      16.671   6.386  21.000  0.00  0.00    +0.000 C 
ATOM      5  CA  UNL     1      17.210   7.220  19.817  0.00  0.00    +0.000 C 
ATOM      6  C   UNL     1      16.447   8.408  20.472  0.00  0.00    +0.000 C 
ATOM      7  CA  UNL     1      14.877   7.536  22.266  0.00  0.00    +0.000 C 
ATOM      8  C   UNL     1      14.371   6.377  22.748  0.00  0.00    +0.000 C 
ATOM      9  C   UNL     1      14.780   5.001  22.228  0.00  0.00    +0.000 C 
ENDROOT
BRANCH   5  11
ATOM     10  O   UNL     1      18.913   8.220  17.631  0.00  0.00    +0.000 OA
ATOM     11  N   UNL     1      18.662   7.379  19.808  0.00  0.00    +0.000 N 
ATOM     12  C   UNL     1      19.355   7.863  18.711  0.00  0.00    +0.000 C 
ATOM     13  H   UNL     1      17.112   4.997  19.583  0.00  0.00    +0.000 HD
BRANCH  12  15
ATOM     14  N   UNL     1      21.307   8.382  20.071  0.00  0.00    +0.000 NA
ATOM     15  C   UNL     1      20.842   7.943  18.940  0.00  0.00    +0.000 C 
BRANCH  15  20
ATOM     16  S   UNL     1      23.381   7.517  15.900  0.00  0.00    +0.000 S 
ATOM     17  O   UNL     1      22.314   3.148  17.304  0.00  0.00    +0.000 OA
ATOM     18  N   UNL     1      21.987   6.176  17.615  0.00  0.00    +0.000 NA
ATOM     19  N   UNL     1      23.311   4.903  16.055  0.00  0.00    +0.000 N 
ATOM     20  C   UNL     1      21.760   7.518  17.851  0.00  0.00    +0.000 A 
ATOM     21  C   UNL     1      22.427   8.396  17.023  0.00  0.00    +0.000 A 
ATOM     22  C   UNL     1      22.825   6.057  16.609  0.00  0.00    +0.000 A 
ATOM     23  C   UNL     1      23.042   3.569  16.416  0.00  0.00    +0.000 C 
ATOM     24  H   UNL     1      18.278  10.411  15.725  0.00  0.00    +0.000 HD
ENDBRANCH  15  20
BRANCH  14  25
ATOM     25  O   UNL     1      22.709   8.387  20.088  0.00  0.00    +0.000 OA
BRANCH  25  26
ATOM     26  C   UNL     1      23.141   9.682  20.477  0.00  0.00    +0.000 C 
BRANCH  26  27
ATOM     27  C   UNL     1      24.605   9.798  20.216  0.00  0.00    +0.000 C 
ATOM     28  C   UNL     1      25.533   9.851  21.178  0.00  0.00    +0.000 C 
ENDBRANCH  26  27
ENDBRANCH  25  26
ENDBRANCH  14  25
ENDBRANCH  12  15
ENDBRANCH   5  11
BRANCH   7  30
ATOM     29  OXT UNL     1      13.265   9.281  22.322  0.00  0.00    +0.000 OA
ATOM     30  C   UNL     1      14.338   8.841  22.679  0.00  0.00    +0.000 C 
BRANCH  30  31
ATOM     31  O   UNL     1      15.216   9.448  23.502  0.00  0.00    +0.000 OA
ATOM     32  H   UNL     1      16.882   6.912  22.377  0.00  0.00    +0.000 HD
ENDBRANCH  30  31
ENDBRANCH   7  30
BRANCH   8  33
ATOM     33  C   UNL     1      13.332   6.283  23.840  0.00  0.00    +0.000 C 
BRANCH  33  34
ATOM     34  S   UNL     1      14.151   6.292  25.444  0.00  0.00    +0.000 S 
BRANCH  34  35
ATOM     35  C   UNL     1      13.027   7.225  26.356  0.00  0.00    +0.000 C 
ATOM     36  C   UNL     1      12.693   6.897  27.613  0.00  0.00    +0.000 C 
BRANCH  36  38
ATOM     37  N   UNL     1      10.663   9.739  28.993  0.00  0.00    +0.000 NA
ATOM     38  C   UNL     1      11.735   7.642  28.450  0.00  0.00    +0.000 A 
ATOM     39  C   UNL     1      11.015   7.004  29.453  0.00  0.00    +0.000 A 
ATOM     40  C   UNL     1      11.526   8.998  28.261  0.00  0.00    +0.000 A 
ATOM     41  C   UNL     1      10.118   7.733  30.227  0.00  0.00    +0.000 A 
ATOM     42  C   UNL     1       9.980   9.085  29.959  0.00  0.00    +0.000 A 
ENDBRANCH  36  38
ENDBRANCH  34  35
ENDBRANCH  33  34
ENDBRANCH   8  33
TORSDOF 12
ENDMDL
MODEL 9
REMARK minimizedAffinity -7.76241589
REMARK minimizedRMSD -1
REMARK  Name = 57278977
REMARK  12 active torsions:
REMARK  status: ('A' for Active; 'I' for Inactive)
REMARK    1  A    between atoms: S_2  and  C_22
REMARK    2  A    between atoms: S_2  and  C_27
REMARK    3  A    between atoms: O_5  and  C_23
REMARK    4  A    between atoms: O_8  and  N_12
REMARK    5  A    between atoms: O_8  and  C_32
REMARK    6  A    between atoms: N_11  and  CA_17
REMARK    7  A    between atoms: CA_19  and  C_23
REMARK    8  A    between atoms: C_20  and  C_22
REMARK    9  A    between atoms: C_24  and  C_25
REMARK   10  A    between atoms: C_25  and  C_26
REMARK   11  A    between atoms: C_29  and  C_31
REMARK   12  A    between atoms: C_32  and  C_35
REMARK                            x       y       z     vdW  Elec       q    Type
REMARK                         _______ _______ _______ _____ _____    ______ ____
ROOT
ATOM      1  S   UNL     1      16.104   5.438  21.535  0.00  0.00    +0.000 S 
ATOM      2  O   UNL     1      13.150   7.210  24.661  0.00  0.00    +0.000 OA
ATOM      3  N   UNL     1      14.339   7.094  22.627  0.00  0.00    +0.000 N 
ATOM      4  C   UNL     1      14.382   5.827  21.921  0.00  0.00    +0.000 C 
ATOM      5  CA  UNL     1      13.809   5.198  23.210  0.00  0.00    +0.000 C 
ATOM      6  C   UNL     1      13.635   6.665  23.698  0.00  0.00    +0.000 C 
ATOM      7  CA  UNL     1      14.908   8.237  22.164  0.00  0.00    +0.000 C 
ATOM      8  C   UNL     1      15.805   8.219  21.150  0.00  0.00    +0.000 C 
ATOM      9  C   UNL     1      16.329   6.934  20.514  0.00  0.00    +0.000 C 
ENDROOT
BRANCH   5  11
ATOM     10  O   UNL     1      12.347   3.544  25.161  0.00  0.00    +0.000 OA
ATOM     11  N   UNL     1      12.549   4.482  23.019  0.00  0.00    +0.000 N 
ATOM     12  C   UNL     1      11.956   3.732  24.021  0.00  0.00    +0.000 C 
ATOM     13  H   UNL     1      15.157   3.813  22.084  0.00  0.00    +0.000 HD
BRANCH  12  15
ATOM     14  N   UNL     1       9.567   3.791  23.554  0.00  0.00    +0.000 NA
ATOM     15  C   UNL     1      10.662   3.092  23.591  0.00  0.00    +0.000 C 
BRANCH  15  20
ATOM     16  S   UNL     1      10.818  -0.524  21.927  0.00  0.00    +0.000 S 
ATOM     17  O   UNL     1       9.766  -1.242  26.464  0.00  0.00    +0.000 OA
ATOM     18  N   UNL     1      10.392   0.687  24.170  0.00  0.00    +0.000 NA
ATOM     19  N   UNL     1      10.243  -1.718  24.188  0.00  0.00    +0.000 N 
ATOM     20  C   UNL     1      10.661   1.652  23.219  0.00  0.00    +0.000 A 
ATOM     21  C   UNL     1      10.916   1.188  21.947  0.00  0.00    +0.000 A 
ATOM     22  C   UNL     1      10.447  -0.497  23.602  0.00  0.00    +0.000 A 
ATOM     23  C   UNL     1       9.928  -2.012  25.528  0.00  0.00    +0.000 C 
ATOM     24  H   UNL     1       7.380   3.903  20.189  0.00  0.00    +0.000 HD
ENDBRANCH  15  20
BRANCH  14  25
ATOM     25  O   UNL     1       8.473   3.019  23.137  0.00  0.00    +0.000 OA
BRANCH  25  26
ATOM     26  C   UNL     1       7.646   3.833  22.319  0.00  0.00    +0.000 C 
BRANCH  26  27
ATOM     27  C   UNL     1       7.047   4.909  23.162  0.00  0.00    +0.000 C 
ATOM     28  C   UNL     1       5.990   4.730  23.962  0.00  0.00    +0.000 C 
ENDBRANCH  26  27
ENDBRANCH  25  26
ENDBRANCH  14  25
ENDBRANCH  12  15
ENDBRANCH   5  11
BRANCH   7  30
ATOM     29  OXT UNL     1      15.351  10.200  23.427  0.00  0.00    +0.000 OA
ATOM     30  C   UNL     1      14.554   9.486  22.855  0.00  0.00    +0.000 C 
BRANCH  30  31
ATOM     31  O   UNL     1      13.227   9.696  22.748  0.00  0.00    +0.000 OA
ATOM     32  H   UNL     1      13.596   6.687  21.616  0.00  0.00    +0.000 HD
ENDBRANCH  30  31
ENDBRANCH   7  30
BRANCH   8  33
ATOM     33  C   UNL     1      16.418   9.450  20.526  0.00  0.00    +0.000 C 
BRANCH  33  34
ATOM     34  S   UNL     1      18.144   9.575  21.023  0.00  0.00    +0.000 S 
BRANCH  34  35
ATOM     35  C   UNL     1      18.920   9.155  19.543  0.00  0.00    +0.000 C 
ATOM     36  C   UNL     1      20.252   9.028  19.456  0.00  0.00    +0.000 C 
BRANCH  36  38
ATOM     37  N   UNL     1      20.921   8.017  15.902  0.00  0.00    +0.000 NA
ATOM     38  C   UNL     1      20.985   8.681  18.226  0.00  0.00    +0.000 A 
ATOM     39  C   UNL     1      22.374   8.681  18.196  0.00  0.00    +0.000 A 
ATOM     40  C   UNL     1      20.310   8.344  17.063  0.00  0.00    +0.000 A 
ATOM     41  C   UNL     1      23.039   8.350  17.020  0.00  0.00    +0.000 A 
ATOM     42  C   UNL     1      22.272   8.029  15.911  0.00  0.00    +0.000 A 
ENDBRANCH  36  38
ENDBRANCH  34  35
ENDBRANCH  33  34
ENDBRANCH   8  33
TORSDOF 12
ENDMDL
MODEL 10
REMARK minimizedAffinity -7.69356632
REMARK minimizedRMSD -1
REMARK  Name = 57278977
REMARK  12 active torsions:
REMARK  status: ('A' for Active; 'I' for Inactive)
REMARK    1  A    between atoms: S_2  and  C_22
REMARK    2  A    between atoms: S_2  and  C_27
REMARK    3  A    between atoms: O_5  and  C_23
REMARK    4  A    between atoms: O_8  and  N_12
REMARK    5  A    between atoms: O_8  and  C_32
REMARK    6  A    between atoms: N_11  and  CA_17
REMARK    7  A    between atoms: CA_19  and  C_23
REMARK    8  A    between atoms: C_20  and  C_22
REMARK    9  A    between atoms: C_24  and  C_25
REMARK   10  A    between atoms: C_25  and  C_26
REMARK   11  A    between atoms: C_29  and  C_31
REMARK   12  A    between atoms: C_32  and  C_35
REMARK                            x       y       z     vdW  Elec       q    Type
REMARK                         _______ _______ _______ _____ _____    ______ ____
ROOT
ATOM      1  S   UNL     1      16.942   9.721  21.235  0.00  0.00    +0.000 S 
ATOM      2  O   UNL     1      15.665   5.316  20.460  0.00  0.00    +0.000 OA
ATOM      3  N   UNL     1      17.151   7.096  20.895  0.00  0.00    +0.000 N 
ATOM      4  C   UNL     1      16.798   8.057  21.924  0.00  0.00    +0.000 C 
ATOM      5  CA  UNL     1      15.390   7.424  21.900  0.00  0.00    +0.000 C 
ATOM      6  C   UNL     1      16.027   6.349  20.972  0.00  0.00    +0.000 C 
ATOM      7  CA  UNL     1      18.312   7.134  20.192  0.00  0.00    +0.000 C 
ATOM      8  C   UNL     1      19.102   8.232  20.191  0.00  0.00    +0.000 C 
ATOM      9  C   UNL     1      18.724   9.541  20.881  0.00  0.00    +0.000 C 
ENDROOT
BRANCH   5  11
ATOM     10  O   UNL     1      13.416   8.600  23.745  0.00  0.00    +0.000 OA
ATOM     11  N   UNL     1      14.943   6.905  23.191  0.00  0.00    +0.000 N 
ATOM     12  C   UNL     1      14.002   7.554  23.973  0.00  0.00    +0.000 C 
ATOM     13  H   UNL     1      17.391   8.206  22.525  0.00  0.00    +0.000 HD
BRANCH  12  15
ATOM     14  N   UNL     1      13.073   7.432  26.220  0.00  0.00    +0.000 NA
ATOM     15  C   UNL     1      13.698   6.825  25.256  0.00  0.00    +0.000 C 
BRANCH  15  20
ATOM     16  S   UNL     1      14.223   2.877  25.317  0.00  0.00    +0.000 S 
ATOM     17  O   UNL     1      18.067   4.715  27.329  0.00  0.00    +0.000 OA
ATOM     18  N   UNL     1      15.343   5.108  25.988  0.00  0.00    +0.000 NA
ATOM     19  N   UNL     1      16.555   3.087  26.493  0.00  0.00    +0.000 N 
ATOM     20  C   UNL     1      14.131   5.410  25.398  0.00  0.00    +0.000 A 
ATOM     21  C   UNL     1      13.384   4.333  24.972  0.00  0.00    +0.000 A 
ATOM     22  C   UNL     1      15.497   3.802  26.000  0.00  0.00    +0.000 A 
ATOM     23  C   UNL     1      17.732   3.561  27.104  0.00  0.00    +0.000 C 
ATOM     24  H   UNL     1       9.681   5.768  27.653  0.00  0.00    +0.000 HD
ENDBRANCH  15  20
BRANCH  14  25
ATOM     25  O   UNL     1      12.891   6.593  27.329  0.00  0.00    +0.000 OA
BRANCH  25  26
ATOM     26  C   UNL     1      12.170   7.315  28.315  0.00  0.00    +0.000 C 
BRANCH  26  27
ATOM     27  C   UNL     1      11.862   8.675  27.784  0.00  0.00    +0.000 C 
ATOM     28  C   UNL     1      11.277   9.642  28.499  0.00  0.00    +0.000 C 
ENDBRANCH  26  27
ENDBRANCH  25  26
ENDBRANCH  14  25
ENDBRANCH  12  15
ENDBRANCH   5  11
BRANCH   7  30
ATOM     29  OXT UNL     1      18.220   5.756  18.258  0.00  0.00    +0.000 OA
ATOM     30  C   UNL     1      18.638   5.951  19.380  0.00  0.00    +0.000 C 
BRANCH  30  31
ATOM     31  O   UNL     1      19.460   5.143  20.078  0.00  0.00    +0.000 OA
ATOM     32  H   UNL     1      18.528   7.329  22.275  0.00  0.00    +0.000 HD
ENDBRANCH  30  31
ENDBRANCH   7  30
BRANCH   8  33
ATOM     33  C   UNL     1      20.444   8.323  19.503  0.00  0.00    +0.000 C 
BRANCH  33  34
ATOM     34  S   UNL     1      20.233   9.074  17.880  0.00  0.00    +0.000 S 
BRANCH  34  35
ATOM     35  C   UNL     1      20.428   7.689  16.874  0.00  0.00    +0.000 C 
ATOM     36  C   UNL     1      21.400   6.791  17.090  0.00  0.00    +0.000 C 
BRANCH  36  38
ATOM     37  N   UNL     1      23.186   3.963  15.383  0.00  0.00    +0.000 NA
ATOM     38  C   UNL     1      21.633   5.590  16.269  0.00  0.00    +0.000 A 
ATOM     39  C   UNL     1      20.582   4.953  15.618  0.00  0.00    +0.000 A 
ATOM     40  C   UNL     1      22.905   5.061  16.121  0.00  0.00    +0.000 A 
ATOM     41  C   UNL     1      20.832   3.821  14.849  0.00  0.00    +0.000 A 
ATOM     42  C   UNL     1      22.140   3.370  14.766  0.00  0.00    +0.000 A 
ENDBRANCH  36  38
ENDBRANCH  34  35
ENDBRANCH  33  34
ENDBRANCH   8  33
TORSDOF 12
ENDMDL
MODEL 11
REMARK minimizedAffinity -7.57828808
REMARK minimizedRMSD -1
REMARK  Name = 57278977
REMARK  12 active torsions:
REMARK  status: ('A' for Active; 'I' for Inactive)
REMARK    1  A    between atoms: S_2  and  C_22
REMARK    2  A    between atoms: S_2  and  C_27
REMARK    3  A    between atoms: O_5  and  C_23
REMARK    4  A    between atoms: O_8  and  N_12
REMARK    5  A    between atoms: O_8  and  C_32
REMARK    6  A    between atoms: N_11  and  CA_17
REMARK    7  A    between atoms: CA_19  and  C_23
REMARK    8  A    between atoms: C_20  and  C_22
REMARK    9  A    between atoms: C_24  and  C_25
REMARK   10  A    between atoms: C_25  and  C_26
REMARK   11  A    between atoms: C_29  and  C_31
REMARK   12  A    between atoms: C_32  and  C_35
REMARK                            x       y       z     vdW  Elec       q    Type
REMARK                         _______ _______ _______ _____ _____    ______ ____
ROOT
ATOM      1  S   UNL     1      18.492   6.006  18.911  0.00  0.00    +0.000 S 
ATOM      2  O   UNL     1      18.747  10.600  18.230  0.00  0.00    +0.000 OA
ATOM      3  N   UNL     1      18.287   8.606  19.404  0.00  0.00    +0.000 N 
ATOM      4  C   UNL     1      19.286   7.553  19.400  0.00  0.00    +0.000 C 
ATOM      5  CA  UNL     1      19.984   8.351  18.277  0.00  0.00    +0.000 C 
ATOM      6  C   UNL     1      18.947   9.465  18.596  0.00  0.00    +0.000 C 
ATOM      7  CA  UNL     1      17.114   8.532  20.084  0.00  0.00    +0.000 C 
ATOM      8  C   UNL     1      16.655   7.357  20.575  0.00  0.00    +0.000 C 
ATOM      9  C   UNL     1      17.344   6.017  20.330  0.00  0.00    +0.000 C 
ENDROOT
BRANCH   5  11
ATOM     10  O   UNL     1      22.347   8.106  16.533  0.00  0.00    +0.000 OA
ATOM     11  N   UNL     1      21.366   8.723  18.574  0.00  0.00    +0.000 N 
ATOM     12  C   UNL     1      22.397   8.558  17.665  0.00  0.00    +0.000 C 
ATOM     13  H   UNL     1      19.877   6.464  19.473  0.00  0.00    +0.000 HD
BRANCH  12  15
ATOM     14  N   UNL     1      23.814   9.563  19.371  0.00  0.00    +0.000 NA
ATOM     15  C   UNL     1      23.730   9.017  18.195  0.00  0.00    +0.000 C 
BRANCH  15  20
ATOM     16  S   UNL     1      26.811   9.212  15.678  0.00  0.00    +0.000 S 
ATOM     17  O   UNL     1      27.119   4.996  17.760  0.00  0.00    +0.000 OA
ATOM     18  N   UNL     1      25.674   7.674  17.416  0.00  0.00    +0.000 NA
ATOM     19  N   UNL     1      27.652   6.820  16.337  0.00  0.00    +0.000 N 
ATOM     20  C   UNL     1      24.940   8.842  17.348  0.00  0.00    +0.000 A 
ATOM     21  C   UNL     1      25.401   9.792  16.463  0.00  0.00    +0.000 A 
ATOM     22  C   UNL     1      26.684   7.757  16.579  0.00  0.00    +0.000 A 
ATOM     23  C   UNL     1      27.811   5.546  16.915  0.00  0.00    +0.000 C 
ATOM     24  H   UNL     1      21.159   9.853  14.234  0.00  0.00    +0.000 HD
ENDBRANCH  15  20
BRANCH  14  25
ATOM     25  O   UNL     1      25.131   9.928  19.682  0.00  0.00    +0.000 OA
BRANCH  25  26
ATOM     26  C   UNL     1      25.500   9.270  20.885  0.00  0.00    +0.000 C 
BRANCH  26  27
ATOM     27  C   UNL     1      25.498  10.266  21.996  0.00  0.00    +0.000 C 
ATOM     28  C   UNL     1      24.526  11.163  22.195  0.00  0.00    +0.000 C 
ENDBRANCH  26  27
ENDBRANCH  25  26
ENDBRANCH  14  25
ENDBRANCH  12  15
ENDBRANCH   5  11
BRANCH   7  30
ATOM     29  OXT UNL     1      15.576  10.191  19.355  0.00  0.00    +0.000 OA
ATOM     30  C   UNL     1      16.335   9.773  20.206  0.00  0.00    +0.000 C 
BRANCH  30  31
ATOM     31  O   UNL     1      16.599  10.352  21.394  0.00  0.00    +0.000 OA
ATOM     32  H   UNL     1      18.806   7.994  21.211  0.00  0.00    +0.000 HD
ENDBRANCH  30  31
ENDBRANCH   7  30
BRANCH   8  33
ATOM     33  C   UNL     1      15.405   7.207  21.410  0.00  0.00    +0.000 C 
BRANCH  33  34
ATOM     34  S   UNL     1      15.866   6.932  23.129  0.00  0.00    +0.000 S 
BRANCH  34  35
ATOM     35  C   UNL     1      14.867   5.580  23.502  0.00  0.00    +0.000 C 
ATOM     36  C   UNL     1      13.548   5.711  23.704  0.00  0.00    +0.000 C 
BRANCH  36  38
ATOM     37  N   UNL     1      12.044   2.784  25.512  0.00  0.00    +0.000 NA
ATOM     38  C   UNL     1      12.633   4.605  24.035  0.00  0.00    +0.000 A 
ATOM     39  C   UNL     1      11.532   4.323  23.235  0.00  0.00    +0.000 A 
ATOM     40  C   UNL     1      12.844   3.813  25.153  0.00  0.00    +0.000 A 
ATOM     41  C   UNL     1      10.685   3.272  23.572  0.00  0.00    +0.000 A 
ATOM     42  C   UNL     1      10.983   2.540  24.711  0.00  0.00    +0.000 A 
ENDBRANCH  36  38
ENDBRANCH  34  35
ENDBRANCH  33  34
ENDBRANCH   8  33
TORSDOF 12
ENDMDL
MODEL 12
REMARK minimizedAffinity -7.5344491
REMARK minimizedRMSD -1
REMARK  Name = 57278977
REMARK  12 active torsions:
REMARK  status: ('A' for Active; 'I' for Inactive)
REMARK    1  A    between atoms: S_2  and  C_22
REMARK    2  A    between atoms: S_2  and  C_27
REMARK    3  A    between atoms: O_5  and  C_23
REMARK    4  A    between atoms: O_8  and  N_12
REMARK    5  A    between atoms: O_8  and  C_32
REMARK    6  A    between atoms: N_11  and  CA_17
REMARK    7  A    between atoms: CA_19  and  C_23
REMARK    8  A    between atoms: C_20  and  C_22
REMARK    9  A    between atoms: C_24  and  C_25
REMARK   10  A    between atoms: C_25  and  C_26
REMARK   11  A    between atoms: C_29  and  C_31
REMARK   12  A    between atoms: C_32  and  C_35
REMARK                            x       y       z     vdW  Elec       q    Type
REMARK                         _______ _______ _______ _____ _____    ______ ____
ROOT
ATOM      1  S   UNL     1      18.247   5.854  18.959  0.00  0.00    +0.000 S 
ATOM      2  O   UNL     1      18.655  10.353  17.852  0.00  0.00    +0.000 OA
ATOM      3  N   UNL     1      18.235   8.494  19.241  0.00  0.00    +0.000 N 
ATOM      4  C   UNL     1      19.171   7.385  19.217  0.00  0.00    +0.000 C 
ATOM      5  CA  UNL     1      19.772   8.044  17.957  0.00  0.00    +0.000 C 
ATOM      6  C   UNL     1      18.838   9.242  18.291  0.00  0.00    +0.000 C 
ATOM      7  CA  UNL     1      17.148   8.548  20.053  0.00  0.00    +0.000 C 
ATOM      8  C   UNL     1      16.690   7.447  20.695  0.00  0.00    +0.000 C 
ATOM      9  C   UNL     1      17.275   6.052  20.492  0.00  0.00    +0.000 C 
ENDROOT
BRANCH   5  11
ATOM     10  O   UNL     1      21.876   7.629  15.936  0.00  0.00    +0.000 OA
ATOM     11  N   UNL     1      21.196   8.354  18.063  0.00  0.00    +0.000 N 
ATOM     12  C   UNL     1      22.093   8.110  17.036  0.00  0.00    +0.000 C 
ATOM     13  H   UNL     1      19.732   6.201  19.223  0.00  0.00    +0.000 HD
BRANCH  12  15
ATOM     14  N   UNL     1      24.231   9.146  16.503  0.00  0.00    +0.000 NA
ATOM     15  C   UNL     1      23.503   8.517  17.375  0.00  0.00    +0.000 C 
BRANCH  15  20
ATOM     16  S   UNL     1      24.938   6.927  20.734  0.00  0.00    +0.000 S 
ATOM     17  O   UNL     1      24.688  11.567  21.515  0.00  0.00    +0.000 OA
ATOM     18  N   UNL     1      24.273   9.176  19.648  0.00  0.00    +0.000 NA
ATOM     19  N   UNL     1      25.102   9.263  21.909  0.00  0.00    +0.000 N 
ATOM     20  C   UNL     1      24.044   8.180  18.719  0.00  0.00    +0.000 A 
ATOM     21  C   UNL     1      24.344   6.897  19.126  0.00  0.00    +0.000 A 
ATOM     22  C   UNL     1      24.745   8.632  20.748  0.00  0.00    +0.000 A 
ATOM     23  C   UNL     1      25.057  10.636  22.217  0.00  0.00    +0.000 C 
ATOM     24  H   UNL     1      19.870   5.484  18.150  0.00  0.00    +0.000 HD
ENDBRANCH  15  20
BRANCH  14  25
ATOM     25  O   UNL     1      25.510   9.430  17.002  0.00  0.00    +0.000 OA
BRANCH  25  26
ATOM     26  C   UNL     1      26.465   8.930  16.078  0.00  0.00    +0.000 C 
BRANCH  26  27
ATOM     27  C   UNL     1      27.217   7.814  16.723  0.00  0.00    +0.000 C 
ATOM     28  C   UNL     1      28.417   7.954  17.297  0.00  0.00    +0.000 C 
ENDBRANCH  26  27
ENDBRANCH  25  26
ENDBRANCH  14  25
ENDBRANCH  12  15
ENDBRANCH   5  11
BRANCH   7  30
ATOM     29  OXT UNL     1      15.647  10.247  19.340  0.00  0.00    +0.000 OA
ATOM     30  C   UNL     1      16.452   9.840  20.152  0.00  0.00    +0.000 C 
BRANCH  30  31
ATOM     31  O   UNL     1      16.851  10.478  21.270  0.00  0.00    +0.000 OA
ATOM     32  H   UNL     1      18.899   7.980  21.070  0.00  0.00    +0.000 HD
ENDBRANCH  30  31
ENDBRANCH   7  30
BRANCH   8  33
ATOM     33  C   UNL     1      15.541   7.442  21.675  0.00  0.00    +0.000 C 
BRANCH  33  34
ATOM     34  S   UNL     1      16.060   6.632  23.197  0.00  0.00    +0.000 S 
BRANCH  34  35
ATOM     35  C   UNL     1      14.846   5.417  23.328  0.00  0.00    +0.000 C 
ATOM     36  C   UNL     1      13.853   5.312  22.433  0.00  0.00    +0.000 C 
BRANCH  36  38
ATOM     37  N   UNL     1      12.003   2.082  21.937  0.00  0.00    +0.000 NA
ATOM     38  C   UNL     1      12.778   4.306  22.484  0.00  0.00    +0.000 A 
ATOM     39  C   UNL     1      11.562   4.588  23.095  0.00  0.00    +0.000 A 
ATOM     40  C   UNL     1      12.947   3.049  21.924  0.00  0.00    +0.000 A 
ATOM     41  C   UNL     1      10.565   3.618  23.129  0.00  0.00    +0.000 A 
ATOM     42  C   UNL     1      10.834   2.393  22.541  0.00  0.00    +0.000 A 
ENDBRANCH  36  38
ENDBRANCH  34  35
ENDBRANCH  33  34
ENDBRANCH   8  33
TORSDOF 12
ENDMDL
MODEL 13
REMARK minimizedAffinity -7.42741442
REMARK minimizedRMSD -1
REMARK  Name = 57278977
REMARK  12 active torsions:
REMARK  status: ('A' for Active; 'I' for Inactive)
REMARK    1  A    between atoms: S_2  and  C_22
REMARK    2  A    between atoms: S_2  and  C_27
REMARK    3  A    between atoms: O_5  and  C_23
REMARK    4  A    between atoms: O_8  and  N_12
REMARK    5  A    between atoms: O_8  and  C_32
REMARK    6  A    between atoms: N_11  and  CA_17
REMARK    7  A    between atoms: CA_19  and  C_23
REMARK    8  A    between atoms: C_20  and  C_22
REMARK    9  A    between atoms: C_24  and  C_25
REMARK   10  A    between atoms: C_25  and  C_26
REMARK   11  A    between atoms: C_29  and  C_31
REMARK   12  A    between atoms: C_32  and  C_35
REMARK                            x       y       z     vdW  Elec       q    Type
REMARK                         _______ _______ _______ _____ _____    ______ ____
ROOT
ATOM      1  S   UNL     1      16.646   9.914  20.078  0.00  0.00    +0.000 S 
ATOM      2  O   UNL     1      16.195   5.285  20.092  0.00  0.00    +0.000 OA
ATOM      3  N   UNL     1      17.334   7.350  20.127  0.00  0.00    +0.000 N 
ATOM      4  C   UNL     1      16.858   8.388  21.023  0.00  0.00    +0.000 C 
ATOM      5  CA  UNL     1      15.598   7.517  21.211  0.00  0.00    +0.000 C 
ATOM      6  C   UNL     1      16.379   6.436  20.409  0.00  0.00    +0.000 C 
ATOM      7  CA  UNL     1      18.428   7.480  19.333  0.00  0.00    +0.000 C 
ATOM      8  C   UNL     1      18.993   8.687  19.100  0.00  0.00    +0.000 C 
ATOM      9  C   UNL     1      18.408  10.002  19.611  0.00  0.00    +0.000 C 
ENDROOT
BRANCH   5  11
ATOM     10  O   UNL     1      12.980   7.217  22.530  0.00  0.00    +0.000 OA
ATOM     11  N   UNL     1      15.326   7.146  22.598  0.00  0.00    +0.000 N 
ATOM     12  C   UNL     1      14.041   7.037  23.105  0.00  0.00    +0.000 C 
ATOM     13  H   UNL     1      16.242   9.632  21.546  0.00  0.00    +0.000 HD
BRANCH  12  15
ATOM     14  N   UNL     1      13.620   7.484  25.461  0.00  0.00    +0.000 NA
ATOM     15  C   UNL     1      14.013   6.638  24.557  0.00  0.00    +0.000 C 
BRANCH  15  20
ATOM     16  S   UNL     1      14.532   2.759  25.300  0.00  0.00    +0.000 S 
ATOM     17  O   UNL     1      18.446   4.893  26.824  0.00  0.00    +0.000 OA
ATOM     18  N   UNL     1      15.678   5.064  25.527  0.00  0.00    +0.000 NA
ATOM     19  N   UNL     1      16.904   3.155  26.341  0.00  0.00    +0.000 N 
ATOM     20  C   UNL     1      14.448   5.266  24.934  0.00  0.00    +0.000 A 
ATOM     21  C   UNL     1      13.685   4.136  24.730  0.00  0.00    +0.000 A 
ATOM     22  C   UNL     1      15.830   3.780  25.765  0.00  0.00    +0.000 A 
ATOM     23  C   UNL     1      18.101   3.720  26.819  0.00  0.00    +0.000 C 
ATOM     24  H   UNL     1      10.079   6.054  27.237  0.00  0.00    +0.000 HD
ENDBRANCH  15  20
BRANCH  14  25
ATOM     25  O   UNL     1      13.671   6.930  26.748  0.00  0.00    +0.000 OA
BRANCH  25  26
ATOM     26  C   UNL     1      12.370   7.005  27.312  0.00  0.00    +0.000 C 
BRANCH  26  27
ATOM     27  C   UNL     1      12.211   8.331  27.976  0.00  0.00    +0.000 C 
ATOM     28  C   UNL     1      11.142   8.681  28.701  0.00  0.00    +0.000 C 
ENDBRANCH  26  27
ENDBRANCH  25  26
ENDBRANCH  14  25
ENDBRANCH  12  15
ENDBRANCH   5  11
BRANCH   7  30
ATOM     29  OXT UNL     1      18.643   5.911  17.561  0.00  0.00    +0.000 OA
ATOM     30  C   UNL     1      18.932   6.258  18.688  0.00  0.00    +0.000 C 
BRANCH  30  31
ATOM     31  O   UNL     1      19.748   5.606  19.539  0.00  0.00    +0.000 OA
ATOM     32  H   UNL     1      18.423   7.903  21.393  0.00  0.00    +0.000 HD
ENDBRANCH  30  31
ENDBRANCH   7  30
BRANCH   8  33
ATOM     33  C   UNL     1      20.256   8.903  18.299  0.00  0.00    +0.000 C 
BRANCH  33  34
ATOM     34  S   UNL     1      21.678   8.842  19.402  0.00  0.00    +0.000 S 
BRANCH  34  35
ATOM     35  C   UNL     1      22.950   9.138  18.278  0.00  0.00    +0.000 C 
ATOM     36  C   UNL     1      24.237   8.956  18.604  0.00  0.00    +0.000 C 
BRANCH  36  38
ATOM     37  N   UNL     1      27.768   9.370  17.394  0.00  0.00    +0.000 NA
ATOM     38  C   UNL     1      25.376   9.196  17.700  0.00  0.00    +0.000 A 
ATOM     39  C   UNL     1      25.175   9.466  16.352  0.00  0.00    +0.000 A 
ATOM     40  C   UNL     1      26.680   9.159  18.168  0.00  0.00    +0.000 A 
ATOM     41  C   UNL     1      26.270   9.687  15.522  0.00  0.00    +0.000 A 
ATOM     42  C   UNL     1      27.534   9.628  16.088  0.00  0.00    +0.000 A 
ENDBRANCH  36  38
ENDBRANCH  34  35
ENDBRANCH  33  34
ENDBRANCH   8  33
TORSDOF 12
ENDMDL
MODEL 14
REMARK minimizedAffinity -7.37545443
REMARK minimizedRMSD -1
REMARK  Name = 57278977
REMARK  12 active torsions:
REMARK  status: ('A' for Active; 'I' for Inactive)
REMARK    1  A    between atoms: S_2  and  C_22
REMARK    2  A    between atoms: S_2  and  C_27
REMARK    3  A    between atoms: O_5  and  C_23
REMARK    4  A    between atoms: O_8  and  N_12
REMARK    5  A    between atoms: O_8  and  C_32
REMARK    6  A    between atoms: N_11  and  CA_17
REMARK    7  A    between atoms: CA_19  and  C_23
REMARK    8  A    between atoms: C_20  and  C_22
REMARK    9  A    between atoms: C_24  and  C_25
REMARK   10  A    between atoms: C_25  and  C_26
REMARK   11  A    between atoms: C_29  and  C_31
REMARK   12  A    between atoms: C_32  and  C_35
REMARK                            x       y       z     vdW  Elec       q    Type
REMARK                         _______ _______ _______ _____ _____    ______ ____
ROOT
ATOM      1  S   UNL     1      15.916   5.059  20.183  0.00  0.00    +0.000 S 
ATOM      2  O   UNL     1      16.463   9.677  20.112  0.00  0.00    +0.000 OA
ATOM      3  N   UNL     1      16.131   7.550  21.075  0.00  0.00    +0.000 N 
ATOM      4  C   UNL     1      16.974   6.452  20.638  0.00  0.00    +0.000 C 
ATOM      5  CA  UNL     1      17.420   7.379  19.486  0.00  0.00    +0.000 C 
ATOM      6  C   UNL     1      16.633   8.488  20.242  0.00  0.00    +0.000 C 
ATOM      7  CA  UNL     1      15.187   7.438  22.045  0.00  0.00    +0.000 C 
ATOM      8  C   UNL     1      14.756   6.229  22.476  0.00  0.00    +0.000 C 
ATOM      9  C   UNL     1      15.206   4.907  21.858  0.00  0.00    +0.000 C 
ENDROOT
BRANCH   5  11
ATOM     10  O   UNL     1      19.010   8.355  17.205  0.00  0.00    +0.000 OA
ATOM     11  N   UNL     1      18.862   7.609  19.426  0.00  0.00    +0.000 N 
ATOM     12  C   UNL     1      19.499   8.074  18.287  0.00  0.00    +0.000 C 
ATOM     13  H   UNL     1      17.430   5.146  19.360  0.00  0.00    +0.000 HD
BRANCH  12  15
ATOM     14  N   UNL     1      21.450   9.144  19.274  0.00  0.00    +0.000 NA
ATOM     15  C   UNL     1      20.985   8.238  18.468  0.00  0.00    +0.000 C 
BRANCH  15  20
ATOM     16  S   UNL     1      23.478   6.417  15.950  0.00  0.00    +0.000 S 
ATOM     17  O   UNL     1      22.711   3.348  19.442  0.00  0.00    +0.000 OA
ATOM     18  N   UNL     1      22.207   6.090  18.177  0.00  0.00    +0.000 NA
ATOM     19  N   UNL     1      23.572   4.252  17.423  0.00  0.00    +0.000 N 
ATOM     20  C   UNL     1      21.904   7.352  17.704  0.00  0.00    +0.000 A 
ATOM     21  C   UNL     1      22.498   7.707  16.512  0.00  0.00    +0.000 A 
ATOM     22  C   UNL     1      23.028   5.506  17.333  0.00  0.00    +0.000 A 
ATOM     23  C   UNL     1      23.392   3.283  18.428  0.00  0.00    +0.000 C 
ATOM     24  H   UNL     1      18.206   8.598  14.576  0.00  0.00    +0.000 HD
ENDBRANCH  15  20
BRANCH  14  25
ATOM     25  O   UNL     1      22.852   9.145  19.300  0.00  0.00    +0.000 OA
BRANCH  25  26
ATOM     26  C   UNL     1      23.268   9.484  20.615  0.00  0.00    +0.000 C 
BRANCH  26  27
ATOM     27  C   UNL     1      24.532  10.272  20.530  0.00  0.00    +0.000 C 
ATOM     28  C   UNL     1      25.195  10.738  21.594  0.00  0.00    +0.000 C 
ENDBRANCH  26  27
ENDBRANCH  25  26
ENDBRANCH  14  25
ENDBRANCH  12  15
ENDBRANCH   5  11
BRANCH   7  30
ATOM     29  OXT UNL     1      13.543   9.148  22.194  0.00  0.00    +0.000 OA
ATOM     30  C   UNL     1      14.606   8.688  22.557  0.00  0.00    +0.000 C 
BRANCH  30  31
ATOM     31  O   UNL     1      15.434   9.222  23.477  0.00  0.00    +0.000 OA
ATOM     32  H   UNL     1      17.195   6.831  22.190  0.00  0.00    +0.000 HD
ENDBRANCH  30  31
ENDBRANCH   7  30
BRANCH   8  33
ATOM     33  C   UNL     1      13.773   6.021  23.603  0.00  0.00    +0.000 C 
BRANCH  33  34
ATOM     34  S   UNL     1      13.931   4.340  24.229  0.00  0.00    +0.000 S 
BRANCH  34  35
ATOM     35  C   UNL     1      12.270   3.899  24.345  0.00  0.00    +0.000 C 
ATOM     36  C   UNL     1      11.382   4.235  23.397  0.00  0.00    +0.000 C 
BRANCH  36  38
ATOM     37  N   UNL     1       8.182   2.459  24.239  0.00  0.00    +0.000 NA
ATOM     38  C   UNL     1       9.948   3.900  23.432  0.00  0.00    +0.000 A 
ATOM     39  C   UNL     1       9.018   4.659  22.730  0.00  0.00    +0.000 A 
ATOM     40  C   UNL     1       9.483   2.820  24.165  0.00  0.00    +0.000 A 
ATOM     41  C   UNL     1       7.670   4.319  22.782  0.00  0.00    +0.000 A 
ATOM     42  C   UNL     1       7.308   3.221  23.544  0.00  0.00    +0.000 A 
ENDBRANCH  36  38
ENDBRANCH  34  35
ENDBRANCH  33  34
ENDBRANCH   8  33
TORSDOF 12
ENDMDL
MODEL 15
REMARK minimizedAffinity -7.36745405
REMARK minimizedRMSD -1
REMARK  Name = 57278977
REMARK  12 active torsions:
REMARK  status: ('A' for Active; 'I' for Inactive)
REMARK    1  A    between atoms: S_2  and  C_22
REMARK    2  A    between atoms: S_2  and  C_27
REMARK    3  A    between atoms: O_5  and  C_23
REMARK    4  A    between atoms: O_8  and  N_12
REMARK    5  A    between atoms: O_8  and  C_32
REMARK    6  A    between atoms: N_11  and  CA_17
REMARK    7  A    between atoms: CA_19  and  C_23
REMARK    8  A    between atoms: C_20  and  C_22
REMARK    9  A    between atoms: C_24  and  C_25
REMARK   10  A    between atoms: C_25  and  C_26
REMARK   11  A    between atoms: C_29  and  C_31
REMARK   12  A    between atoms: C_32  and  C_35
REMARK                            x       y       z     vdW  Elec       q    Type
REMARK                         _______ _______ _______ _____ _____    ______ ____
ROOT
ATOM      1  S   UNL     1      18.577   5.910  18.198  0.00  0.00    +0.000 S 
ATOM      2  O   UNL     1      19.014  10.533  17.932  0.00  0.00    +0.000 OA
ATOM      3  N   UNL     1      18.567   8.455  18.954  0.00  0.00    +0.000 N 
ATOM      4  C   UNL     1      19.501   7.364  18.744  0.00  0.00    +0.000 C 
ATOM      5  CA  UNL     1      20.124   8.237  17.634  0.00  0.00    +0.000 C 
ATOM      6  C   UNL     1      19.187   9.360  18.165  0.00  0.00    +0.000 C 
ATOM      7  CA  UNL     1      17.466   8.366  19.745  0.00  0.00    +0.000 C 
ATOM      8  C   UNL     1      16.995   7.170  20.169  0.00  0.00    +0.000 C 
ATOM      9  C   UNL     1      17.581   5.831  19.726  0.00  0.00    +0.000 C 
ENDROOT
BRANCH   5  11
ATOM     10  O   UNL     1      22.320   7.801  15.718  0.00  0.00    +0.000 OA
ATOM     11  N   UNL     1      21.547   8.515  17.816  0.00  0.00    +0.000 N 
ATOM     12  C   UNL     1      22.490   8.265  16.833  0.00  0.00    +0.000 C 
ATOM     13  H   UNL     1      19.981   6.380  18.872  0.00  0.00    +0.000 HD
BRANCH  12  15
ATOM     14  N   UNL     1      24.675   9.257  16.423  0.00  0.00    +0.000 NA
ATOM     15  C   UNL     1      23.889   8.637  17.250  0.00  0.00    +0.000 C 
BRANCH  15  20
ATOM     16  S   UNL     1      25.153   6.992  20.651  0.00  0.00    +0.000 S 
ATOM     17  O   UNL     1      24.690  11.595  21.545  0.00  0.00    +0.000 OA
ATOM     18  N   UNL     1      24.483   9.251  19.587  0.00  0.00    +0.000 NA
ATOM     19  N   UNL     1      25.157   9.295  21.900  0.00  0.00    +0.000 N 
ATOM     20  C   UNL     1      24.351   8.276  18.617  0.00  0.00    +0.000 A 
ATOM     21  C   UNL     1      24.668   6.992  19.006  0.00  0.00    +0.000 A 
ATOM     22  C   UNL     1      24.900   8.688  20.700  0.00  0.00    +0.000 A 
ATOM     23  C   UNL     1      25.044  10.656  22.244  0.00  0.00    +0.000 C 
ATOM     24  H   UNL     1      20.321   5.463  17.692  0.00  0.00    +0.000 HD
ENDBRANCH  15  20
BRANCH  14  25
ATOM     25  O   UNL     1      25.932   9.509  16.990  0.00  0.00    +0.000 OA
BRANCH  25  26
ATOM     26  C   UNL     1      26.923   8.990  16.116  0.00  0.00    +0.000 C 
BRANCH  26  27
ATOM     27  C   UNL     1      28.247   9.563  16.498  0.00  0.00    +0.000 C 
ATOM     28  C   UNL     1      28.530  10.046  17.712  0.00  0.00    +0.000 C 
ENDBRANCH  26  27
ENDBRANCH  25  26
ENDBRANCH  14  25
ENDBRANCH  12  15
ENDBRANCH   5  11
BRANCH   7  30
ATOM     29  OXT UNL     1      15.796  10.035  19.474  0.00  0.00    +0.000 OA
ATOM     30  C   UNL     1      16.773   9.622  20.066  0.00  0.00    +0.000 C 
BRANCH  30  31
ATOM     31  O   UNL     1      17.390  10.222  21.103  0.00  0.00    +0.000 OA
ATOM     32  H   UNL     1      19.415   7.822  20.320  0.00  0.00    +0.000 HD
ENDBRANCH  30  31
ENDBRANCH   7  30
BRANCH   8  33
ATOM     33  C   UNL     1      15.831   6.993  21.114  0.00  0.00    +0.000 C 
BRANCH  33  34
ATOM     34  S   UNL     1      16.391   7.252  22.806  0.00  0.00    +0.000 S 
BRANCH  34  35
ATOM     35  C   UNL     1      17.930   6.482  22.740  0.00  0.00    +0.000 C 
ATOM     36  C   UNL     1      18.150   5.293  23.321  0.00  0.00    +0.000 C 
BRANCH  36  38
ATOM     37  N   UNL     1      20.925   2.988  24.365  0.00  0.00    +0.000 NA
ATOM     38  C   UNL     1      19.439   4.580  23.314  0.00  0.00    +0.000 A 
ATOM     39  C   UNL     1      20.370   4.794  22.304  0.00  0.00    +0.000 A 
ATOM     40  C   UNL     1      19.761   3.675  24.313  0.00  0.00    +0.000 A 
ATOM     41  C   UNL     1      21.579   4.105  22.323  0.00  0.00    +0.000 A 
ATOM     42  C   UNL     1      21.805   3.221  23.366  0.00  0.00    +0.000 A 
ENDBRANCH  36  38
ENDBRANCH  34  35
ENDBRANCH  33  34
ENDBRANCH   8  33
TORSDOF 12
ENDMDL
MODEL 16
REMARK minimizedAffinity -7.32259893
REMARK minimizedRMSD -1
REMARK  Name = 57278977
REMARK  12 active torsions:
REMARK  status: ('A' for Active; 'I' for Inactive)
REMARK    1  A    between atoms: S_2  and  C_22
REMARK    2  A    between atoms: S_2  and  C_27
REMARK    3  A    between atoms: O_5  and  C_23
REMARK    4  A    between atoms: O_8  and  N_12
REMARK    5  A    between atoms: O_8  and  C_32
REMARK    6  A    between atoms: N_11  and  CA_17
REMARK    7  A    between atoms: CA_19  and  C_23
REMARK    8  A    between atoms: C_20  and  C_22
REMARK    9  A    between atoms: C_24  and  C_25
REMARK   10  A    between atoms: C_25  and  C_26
REMARK   11  A    between atoms: C_29  and  C_31
REMARK   12  A    between atoms: C_32  and  C_35
REMARK                            x       y       z     vdW  Elec       q    Type
REMARK                         _______ _______ _______ _____ _____    ______ ____
ROOT
ATOM      1  S   UNL     1      22.045   7.196  20.425  0.00  0.00    +0.000 S 
ATOM      2  O   UNL     1      18.633   9.143  17.935  0.00  0.00    +0.000 OA
ATOM      3  N   UNL     1      20.218   7.498  18.523  0.00  0.00    +0.000 N 
ATOM      4  C   UNL     1      20.315   7.095  19.914  0.00  0.00    +0.000 C 
ATOM      5  CA  UNL     1      19.433   8.322  20.232  0.00  0.00    +0.000 C 
ATOM      6  C   UNL     1      19.271   8.447  18.689  0.00  0.00    +0.000 C 
ATOM      7  CA  UNL     1      20.958   6.951  17.524  0.00  0.00    +0.000 C 
ATOM      8  C   UNL     1      22.048   6.192  17.787  0.00  0.00    +0.000 C 
ATOM      9  C   UNL     1      22.597   5.967  19.194  0.00  0.00    +0.000 C 
ENDROOT
BRANCH   5  11
ATOM     10  O   UNL     1      17.558  10.180  21.542  0.00  0.00    +0.000 OA
ATOM     11  N   UNL     1      18.193   8.003  20.936  0.00  0.00    +0.000 N 
ATOM     12  C   UNL     1      17.390   8.972  21.515  0.00  0.00    +0.000 C 
ATOM     13  H   UNL     1      20.889   7.674  21.801  0.00  0.00    +0.000 HD
BRANCH  12  15
ATOM     14  N   UNL     1      15.147   9.168  22.442  0.00  0.00    +0.000 NA
ATOM     15  C   UNL     1      16.163   8.403  22.178  0.00  0.00    +0.000 C 
BRANCH  15  20
ATOM     16  S   UNL     1      16.284   4.761  23.787  0.00  0.00    +0.000 S 
ATOM     17  O   UNL     1      15.168   4.126  19.253  0.00  0.00    +0.000 OA
ATOM     18  N   UNL     1      15.848   6.012  21.567  0.00  0.00    +0.000 NA
ATOM     19  N   UNL     1      15.666   3.609  21.515  0.00  0.00    +0.000 N 
ATOM     20  C   UNL     1      16.142   6.958  22.529  0.00  0.00    +0.000 A 
ATOM     21  C   UNL     1      16.406   6.471  23.792  0.00  0.00    +0.000 A 
ATOM     22  C   UNL     1      15.893   4.818  22.117  0.00  0.00    +0.000 A 
ATOM     23  C   UNL     1      15.330   3.340  20.175  0.00  0.00    +0.000 C 
ATOM     24  H   UNL     1      20.668   8.662  23.804  0.00  0.00    +0.000 HD
ENDBRANCH  15  20
BRANCH  14  25
ATOM     25  O   UNL     1      14.110   8.459  23.063  0.00  0.00    +0.000 OA
BRANCH  25  26
ATOM     26  C   UNL     1      12.942   8.598  22.269  0.00  0.00    +0.000 C 
BRANCH  26  27
ATOM     27  C   UNL     1      12.053   7.425  22.512  0.00  0.00    +0.000 C 
ATOM     28  C   UNL     1      12.463   6.153  22.457  0.00  0.00    +0.000 C 
ENDBRANCH  26  27
ENDBRANCH  25  26
ENDBRANCH  14  25
ENDBRANCH  12  15
ENDBRANCH   5  11
BRANCH   7  30
ATOM     29  OXT UNL     1      20.983   8.221  15.516  0.00  0.00    +0.000 OA
ATOM     30  C   UNL     1      20.560   7.273  16.146  0.00  0.00    +0.000 C 
BRANCH  30  31
ATOM     31  O   UNL     1      19.669   6.361  15.712  0.00  0.00    +0.000 OA
ATOM     32  H   UNL     1      19.936   5.697  18.868  0.00  0.00    +0.000 HD
ENDBRANCH  30  31
ENDBRANCH   7  30
BRANCH   8  33
ATOM     33  C   UNL     1      22.872   5.483  16.738  0.00  0.00    +0.000 C 
BRANCH  33  34
ATOM     34  S   UNL     1      22.427   3.739  16.708  0.00  0.00    +0.000 S 
BRANCH  34  35
ATOM     35  C   UNL     1      21.707   3.633  15.147  0.00  0.00    +0.000 C 
ATOM     36  C   UNL     1      22.076   2.697  14.261  0.00  0.00    +0.000 C 
BRANCH  36  38
ATOM     37  N   UNL     1      21.860   2.547  10.515  0.00  0.00    +0.000 NA
ATOM     38  C   UNL     1      21.512   2.550  12.907  0.00  0.00    +0.000 A 
ATOM     39  C   UNL     1      20.160   2.288  12.720  0.00  0.00    +0.000 A 
ATOM     40  C   UNL     1      22.313   2.670  11.783  0.00  0.00    +0.000 A 
ATOM     41  C   UNL     1      19.656   2.155  11.430  0.00  0.00    +0.000 A 
ATOM     42  C   UNL     1      20.541   2.292  10.371  0.00  0.00    +0.000 A 
ENDBRANCH  36  38
ENDBRANCH  34  35
ENDBRANCH  33  34
ENDBRANCH   8  33
TORSDOF 12
ENDMDL
MODEL 17
REMARK minimizedAffinity -7.30070734
REMARK minimizedRMSD -1
REMARK  Name = 57278977
REMARK  12 active torsions:
REMARK  status: ('A' for Active; 'I' for Inactive)
REMARK    1  A    between atoms: S_2  and  C_22
REMARK    2  A    between atoms: S_2  and  C_27
REMARK    3  A    between atoms: O_5  and  C_23
REMARK    4  A    between atoms: O_8  and  N_12
REMARK    5  A    between atoms: O_8  and  C_32
REMARK    6  A    between atoms: N_11  and  CA_17
REMARK    7  A    between atoms: CA_19  and  C_23
REMARK    8  A    between atoms: C_20  and  C_22
REMARK    9  A    between atoms: C_24  and  C_25
REMARK   10  A    between atoms: C_25  and  C_26
REMARK   11  A    between atoms: C_29  and  C_31
REMARK   12  A    between atoms: C_32  and  C_35
REMARK                            x       y       z     vdW  Elec       q    Type
REMARK                         _______ _______ _______ _____ _____    ______ ____
ROOT
ATOM      1  S   UNL     1      17.024   5.410  19.897  0.00  0.00    +0.000 S 
ATOM      2  O   UNL     1      18.706   9.332  18.047  0.00  0.00    +0.000 OA
ATOM      3  N   UNL     1      18.065   7.848  19.766  0.00  0.00    +0.000 N 
ATOM      4  C   UNL     1      18.477   6.460  19.671  0.00  0.00    +0.000 C 
ATOM      5  CA  UNL     1      18.875   6.776  18.213  0.00  0.00    +0.000 C 
ATOM      6  C   UNL     1      18.590   8.258  18.589  0.00  0.00    +0.000 C 
ATOM      7  CA  UNL     1      17.367   8.360  20.812  0.00  0.00    +0.000 C 
ATOM      8  C   UNL     1      16.750   7.557  21.710  0.00  0.00    +0.000 C 
ATOM      9  C   UNL     1      16.694   6.037  21.580  0.00  0.00    +0.000 C 
ENDROOT
BRANCH   5  11
ATOM     10  O   UNL     1      20.201   6.866  15.583  0.00  0.00    +0.000 OA
ATOM     11  N   UNL     1      20.276   6.501  17.901  0.00  0.00    +0.000 N 
ATOM     12  C   UNL     1      20.784   6.577  16.615  0.00  0.00    +0.000 C 
ATOM     13  H   UNL     1      18.175   4.671  18.502  0.00  0.00    +0.000 HD
BRANCH  12  15
ATOM     14  N   UNL     1      22.649   5.029  16.379  0.00  0.00    +0.000 NA
ATOM     15  C   UNL     1      22.255   6.256  16.542  0.00  0.00    +0.000 C 
BRANCH  15  20
ATOM     16  S   UNL     1      24.965   9.150  16.155  0.00  0.00    +0.000 S 
ATOM     17  O   UNL     1      23.930   8.964  20.749  0.00  0.00    +0.000 OA
ATOM     18  N   UNL     1      23.511   7.918  17.902  0.00  0.00    +0.000 NA
ATOM     19  N   UNL     1      24.952   9.666  18.724  0.00  0.00    +0.000 N 
ATOM     20  C   UNL     1      23.239   7.364  16.666  0.00  0.00    +0.000 A 
ATOM     21  C   UNL     1      23.929   7.900  15.601  0.00  0.00    +0.000 A 
ATOM     22  C   UNL     1      24.407   8.869  17.754  0.00  0.00    +0.000 A 
ATOM     23  C   UNL     1      24.696   9.671  20.109  0.00  0.00    +0.000 C 
ATOM     24  H   UNL     1      25.641   3.572  14.461  0.00  0.00    +0.000 HD
ENDBRANCH  15  20
BRANCH  14  25
ATOM     25  O   UNL     1      24.047   4.934  16.343  0.00  0.00    +0.000 OA
BRANCH  25  26
ATOM     26  C   UNL     1      24.393   3.567  16.177  0.00  0.00    +0.000 C 
BRANCH  26  27
ATOM     27  C   UNL     1      24.552   3.286  14.720  0.00  0.00    +0.000 C 
ATOM     28  C   UNL     1      25.188   4.096  13.868  0.00  0.00    +0.000 C 
ENDBRANCH  26  27
ENDBRANCH  25  26
ENDBRANCH  14  25
ENDBRANCH  12  15
ENDBRANCH   5  11
BRANCH   7  30
ATOM     29  OXT UNL     1      16.310  10.462  20.474  0.00  0.00    +0.000 OA
ATOM     30  C   UNL     1      17.257   9.824  20.887  0.00  0.00    +0.000 C 
BRANCH  30  31
ATOM     31  O   UNL     1      18.359  10.326  21.480  0.00  0.00    +0.000 OA
ATOM     32  H   UNL     1      19.124   7.219  20.996  0.00  0.00    +0.000 HD
ENDBRANCH  30  31
ENDBRANCH   7  30
BRANCH   8  33
ATOM     33  C   UNL     1      16.025   8.046  22.942  0.00  0.00    +0.000 C 
BRANCH  33  34
ATOM     34  S   UNL     1      14.282   8.278  22.555  0.00  0.00    +0.000 S 
BRANCH  34  35
ATOM     35  C   UNL     1      13.588   7.016  23.499  0.00  0.00    +0.000 C 
ATOM     36  C   UNL     1      13.182   5.863  22.947  0.00  0.00    +0.000 C 
BRANCH  36  38
ATOM     37  N   UNL     1      10.833   3.073  23.842  0.00  0.00    +0.000 NA
ATOM     38  C   UNL     1      12.573   4.744  23.688  0.00  0.00    +0.000 A 
ATOM     39  C   UNL     1      13.117   4.299  24.887  0.00  0.00    +0.000 A 
ATOM     40  C   UNL     1      11.440   4.104  23.212  0.00  0.00    +0.000 A 
ATOM     41  C   UNL     1      12.521   3.241  25.565  0.00  0.00    +0.000 A 
ATOM     42  C   UNL     1      11.391   2.667  25.004  0.00  0.00    +0.000 A 
ENDBRANCH  36  38
ENDBRANCH  34  35
ENDBRANCH  33  34
ENDBRANCH   8  33
TORSDOF 12
ENDMDL
MODEL 18
REMARK minimizedAffinity -7.24166822
REMARK minimizedRMSD -1
REMARK  Name = 57278977
REMARK  12 active torsions:
REMARK  status: ('A' for Active; 'I' for Inactive)
REMARK    1  A    between atoms: S_2  and  C_22
REMARK    2  A    between atoms: S_2  and  C_27
REMARK    3  A    between atoms: O_5  and  C_23
REMARK    4  A    between atoms: O_8  and  N_12
REMARK    5  A    between atoms: O_8  and  C_32
REMARK    6  A    between atoms: N_11  and  CA_17
REMARK    7  A    between atoms: CA_19  and  C_23
REMARK    8  A    between atoms: C_20  and  C_22
REMARK    9  A    between atoms: C_24  and  C_25
REMARK   10  A    between atoms: C_25  and  C_26
REMARK   11  A    between atoms: C_29  and  C_31
REMARK   12  A    between atoms: C_32  and  C_35
REMARK                            x       y       z     vdW  Elec       q    Type
REMARK                         _______ _______ _______ _____ _____    ______ ____
ROOT
ATOM      1  S   UNL     1      16.128   4.993  21.547  0.00  0.00    +0.000 S 
ATOM      2  O   UNL     1      16.332   9.309  19.825  0.00  0.00    +0.000 OA
ATOM      3  N   UNL     1      16.155   7.647  21.490  0.00  0.00    +0.000 N 
ATOM      4  C   UNL     1      17.077   6.527  21.452  0.00  0.00    +0.000 C 
ATOM      5  CA  UNL     1      17.458   7.012  20.036  0.00  0.00    +0.000 C 
ATOM      6  C   UNL     1      16.588   8.259  20.366  0.00  0.00    +0.000 C 
ATOM      7  CA  UNL     1      15.217   7.821  22.457  0.00  0.00    +0.000 C 
ATOM      8  C   UNL     1      14.876   6.819  23.300  0.00  0.00    +0.000 C 
ATOM      9  C   UNL     1      15.424   5.398  23.182  0.00  0.00    +0.000 C 
ENDROOT
BRANCH   5  11
ATOM     10  O   UNL     1      18.982   7.206  17.522  0.00  0.00    +0.000 OA
ATOM     11  N   UNL     1      18.879   7.306  19.865  0.00  0.00    +0.000 N 
ATOM     12  C   UNL     1      19.485   7.371  18.621  0.00  0.00    +0.000 C 
ATOM     13  H   UNL     1      17.634   4.891  20.725  0.00  0.00    +0.000 HD
BRANCH  12  15
ATOM     14  N   UNL     1      21.426   8.742  18.090  0.00  0.00    +0.000 NA
ATOM     15  C   UNL     1      20.954   7.694  18.697  0.00  0.00    +0.000 C 
BRANCH  15  20
ATOM     16  S   UNL     1      22.923   4.748  20.517  0.00  0.00    +0.000 S 
ATOM     17  O   UNL     1      25.159   8.719  21.716  0.00  0.00    +0.000 OA
ATOM     18  N   UNL     1      22.903   7.313  20.197  0.00  0.00    +0.000 NA
ATOM     19  N   UNL     1      24.637   6.406  21.602  0.00  0.00    +0.000 N 
ATOM     20  C   UNL     1      21.849   6.793  19.470  0.00  0.00    +0.000 A 
ATOM     21  C   UNL     1      21.700   5.424  19.522  0.00  0.00    +0.000 A 
ATOM     22  C   UNL     1      23.538   6.326  20.790  0.00  0.00    +0.000 A 
ATOM     23  C   UNL     1      25.357   7.547  22.004  0.00  0.00    +0.000 C 
ATOM     24  H   UNL     1      17.201   5.919  21.098  0.00  0.00    +0.000 HD
ENDBRANCH  15  20
BRANCH  14  25
ATOM     25  O   UNL     1      22.810   8.868  18.272  0.00  0.00    +0.000 OA
BRANCH  25  26
ATOM     26  C   UNL     1      23.428   8.848  16.995  0.00  0.00    +0.000 C 
BRANCH  26  27
ATOM     27  C   UNL     1      24.057   7.511  16.786  0.00  0.00    +0.000 C 
ATOM     28  C   UNL     1      23.532   6.550  16.018  0.00  0.00    +0.000 C 
ENDBRANCH  26  27
ENDBRANCH  25  26
ENDBRANCH  14  25
ENDBRANCH  12  15
ENDBRANCH   5  11
BRANCH   7  30
ATOM     29  OXT UNL     1      13.482   9.370  21.968  0.00  0.00    +0.000 OA
ATOM     30  C   UNL     1      14.544   9.128  22.505  0.00  0.00    +0.000 C 
BRANCH  30  31
ATOM     31  O   UNL     1      15.288   9.988  23.228  0.00  0.00    +0.000 OA
ATOM     32  H   UNL     1      17.242   7.433  22.873  0.00  0.00    +0.000 HD
ENDBRANCH  30  31
ENDBRANCH   7  30
BRANCH   8  33
ATOM     33  C   UNL     1      13.906   6.957  24.449  0.00  0.00    +0.000 C 
BRANCH  33  34
ATOM     34  S   UNL     1      14.367   5.810  25.759  0.00  0.00    +0.000 S 
BRANCH  34  35
ATOM     35  C   UNL     1      13.114   6.128  26.899  0.00  0.00    +0.000 C 
ATOM     36  C   UNL     1      12.884   7.362  27.369  0.00  0.00    +0.000 C 
BRANCH  36  38
ATOM     37  N   UNL     1      10.367   7.002  30.132  0.00  0.00    +0.000 NA
ATOM     38  C   UNL     1      11.839   7.707  28.349  0.00  0.00    +0.000 A 
ATOM     39  C   UNL     1      11.340   9.001  28.437  0.00  0.00    +0.000 A 
ATOM     40  C   UNL     1      11.324   6.752  29.211  0.00  0.00    +0.000 A 
ATOM     41  C   UNL     1      10.354   9.298  29.373  0.00  0.00    +0.000 A 
ATOM     42  C   UNL     1       9.906   8.271  30.189  0.00  0.00    +0.000 A 
ENDBRANCH  36  38
ENDBRANCH  34  35
ENDBRANCH  33  34
ENDBRANCH   8  33
TORSDOF 12
ENDMDL
MODEL 19
REMARK minimizedAffinity -7.02710485
REMARK minimizedRMSD -1
REMARK  Name = 57278977
REMARK  12 active torsions:
REMARK  status: ('A' for Active; 'I' for Inactive)
REMARK    1  A    between atoms: S_2  and  C_22
REMARK    2  A    between atoms: S_2  and  C_27
REMARK    3  A    between atoms: O_5  and  C_23
REMARK    4  A    between atoms: O_8  and  N_12
REMARK    5  A    between atoms: O_8  and  C_32
REMARK    6  A    between atoms: N_11  and  CA_17
REMARK    7  A    between atoms: CA_19  and  C_23
REMARK    8  A    between atoms: C_20  and  C_22
REMARK    9  A    between atoms: C_24  and  C_25
REMARK   10  A    between atoms: C_25  and  C_26
REMARK   11  A    between atoms: C_29  and  C_31
REMARK   12  A    between atoms: C_32  and  C_35
REMARK                            x       y       z     vdW  Elec       q    Type
REMARK                         _______ _______ _______ _____ _____    ______ ____
ROOT
ATOM      1  S   UNL     1      19.205   6.377  19.572  0.00  0.00    +0.000 S 
ATOM      2  O   UNL     1      19.432   9.613  16.239  0.00  0.00    +0.000 OA
ATOM      3  N   UNL     1      19.297   8.776  18.441  0.00  0.00    +0.000 N 
ATOM      4  C   UNL     1      20.188   7.698  18.827  0.00  0.00    +0.000 C 
ATOM      5  CA  UNL     1      20.508   7.550  17.324  0.00  0.00    +0.000 C 
ATOM      6  C   UNL     1      19.689   8.861  17.150  0.00  0.00    +0.000 C 
ATOM      7  CA  UNL     1      18.416   9.369  19.287  0.00  0.00    +0.000 C 
ATOM      8  C   UNL     1      18.092   8.809  20.476  0.00  0.00    +0.000 C 
ATOM      9  C   UNL     1      18.597   7.440  20.926  0.00  0.00    +0.000 C 
ENDROOT
BRANCH   5  11
ATOM     10  O   UNL     1      22.319   5.512  16.207  0.00  0.00    +0.000 OA
ATOM     11  N   UNL     1      21.925   7.687  16.996  0.00  0.00    +0.000 N 
ATOM     12  C   UNL     1      22.676   6.648  16.472  0.00  0.00    +0.000 C 
ATOM     13  H   UNL     1      20.688   7.412  19.549  0.00  0.00    +0.000 HD
BRANCH  12  15
ATOM     14  N   UNL     1      24.433   8.274  16.028  0.00  0.00    +0.000 NA
ATOM     15  C   UNL     1      24.110   7.029  16.211  0.00  0.00    +0.000 C 
BRANCH  15  20
ATOM     16  S   UNL     1      26.942   4.288  16.785  0.00  0.00    +0.000 S 
ATOM     17  O   UNL     1      25.883   4.098  12.198  0.00  0.00    +0.000 OA
ATOM     18  N   UNL     1      25.431   5.328  14.965  0.00  0.00    +0.000 NA
ATOM     19  N   UNL     1      26.942   3.588  14.260  0.00  0.00    +0.000 N 
ATOM     20  C   UNL     1      25.139   5.957  16.159  0.00  0.00    +0.000 A 
ATOM     21  C   UNL     1      25.856   5.529  17.256  0.00  0.00    +0.000 A 
ATOM     22  C   UNL     1      26.367   4.429  15.175  0.00  0.00    +0.000 A 
ATOM     23  C   UNL     1      26.680   3.472  12.881  0.00  0.00    +0.000 C 
ATOM     24  H   UNL     1      27.386   9.997  18.070  0.00  0.00    +0.000 HD
ENDBRANCH  15  20
BRANCH  14  25
ATOM     25  O   UNL     1      25.807   8.424  15.794  0.00  0.00    +0.000 OA
BRANCH  25  26
ATOM     26  C   UNL     1      26.249   9.580  16.488  0.00  0.00    +0.000 C 
BRANCH  26  27
ATOM     27  C   UNL     1      26.393   9.246  17.935  0.00  0.00    +0.000 C 
ATOM     28  C   UNL     1      27.557   8.942  18.520  0.00  0.00    +0.000 C 
ENDBRANCH  26  27
ENDBRANCH  25  26
ENDBRANCH  14  25
ENDBRANCH  12  15
ENDBRANCH   5  11
BRANCH   7  30
ATOM     29  OXT UNL     1      16.700  10.663  18.271  0.00  0.00    +0.000 OA
ATOM     30  C   UNL     1      17.780  10.612  18.824  0.00  0.00    +0.000 C 
BRANCH  30  31
ATOM     31  O   UNL     1      18.579  11.657  19.112  0.00  0.00    +0.000 OA
ATOM     32  H   UNL     1      20.447   9.095  19.757  0.00  0.00    +0.000 HD
ENDBRANCH  30  31
ENDBRANCH   7  30
BRANCH   8  33
ATOM     33  C   UNL     1      17.187   9.444  21.505  0.00  0.00    +0.000 C 
BRANCH  33  34
ATOM     34  S   UNL     1      15.487   8.935  21.197  0.00  0.00    +0.000 S 
BRANCH  34  35
ATOM     35  C   UNL     1      15.180   8.014  22.620  0.00  0.00    +0.000 C 
ATOM     36  C   UNL     1      15.102   6.676  22.592  0.00  0.00    +0.000 C 
BRANCH  36  38
ATOM     37  N   UNL     1      13.242   4.593  25.102  0.00  0.00    +0.000 NA
ATOM     38  C   UNL     1      14.835   5.824  23.764  0.00  0.00    +0.000 A 
ATOM     39  C   UNL     1      15.861   5.446  24.623  0.00  0.00    +0.000 A 
ATOM     40  C   UNL     1      13.555   5.376  24.045  0.00  0.00    +0.000 A 
ATOM     41  C   UNL     1      15.579   4.640  25.721  0.00  0.00    +0.000 A 
ATOM     42  C   UNL     1      14.265   4.245  25.914  0.00  0.00    +0.000 A 
ENDBRANCH  36  38
ENDBRANCH  34  35
ENDBRANCH  33  34
ENDBRANCH   8  33
TORSDOF 12
ENDMDL
