MODEL 1
REMARK minimizedAffinity -8.70201015
REMARK minimizedRMSD -1
REMARK  Name = 163789
REMARK  15 active torsions:
REMARK  status: ('A' for Active; 'I' for Inactive)
REMARK    1  A    between atoms: S_2  and  C_26
REMARK    2  A    between atoms: S_2  and  C_31
REMARK    3  A    between atoms: O_5  and  C_28
REMARK    4  A    between atoms: O_9  and  N_18
REMARK    5  A    between atoms: O_10  and  C_42
REMARK    6  A    between atoms: O_11  and  C_45
REMARK    7  A    between atoms: N_14  and  CA_21
REMARK    8  A    between atoms: N_15  and  CA_29
REMARK    9  A    between atoms: N_17  and  C_40
REMARK   10  A    between atoms: CA_23  and  C_28
REMARK   11  A    between atoms: C_24  and  C_26
REMARK   12  A    between atoms: C_27  and  CA_29
REMARK   13  A    between atoms: CA_29  and  C_30
REMARK   14  A    between atoms: C_33  and  C_37
REMARK   15  A    between atoms: C_40  and  C_42
REMARK                            x       y       z     vdW  Elec       q    Type
REMARK                         _______ _______ _______ _____ _____    ______ ____
ROOT
ATOM      1  O   UNL     1      19.326   9.099  21.052  0.00  0.00    +0.000 OA
ATOM      2  N   UNL     1      17.794   7.357  21.074  0.00  0.00    +0.000 N 
ATOM      3  C   UNL     1      18.804   8.132  20.500  0.00  0.00    +0.000 C 
ATOM      4  H   UNL     1      17.387   8.151  21.450  0.00  0.00    +0.000 HD
ENDROOT
BRANCH   2   9
ATOM      5  S   UNL     1      15.911   5.182  21.780  0.00  0.00    +0.000 S 
ATOM      6  O   UNL     1      15.922   9.810  22.234  0.00  0.00    +0.000 OA
ATOM      7  N   UNL     1      15.210   7.597  22.629  0.00  0.00    +0.000 N 
ATOM      8  C   UNL     1      16.214   6.580  22.883  0.00  0.00    +0.000 C 
ATOM      9  CA  UNL     1      17.249   7.621  22.404  0.00  0.00    +0.000 C 
ATOM     10  C   UNL     1      16.062   8.624  22.414  0.00  0.00    +0.000 C 
ATOM     11  CA  UNL     1      13.873   7.361  22.650  0.00  0.00    +0.000 C 
ATOM     12  C   UNL     1      13.378   6.101  22.622  0.00  0.00    +0.000 C 
ATOM     13  C   UNL     1      14.251   4.857  22.466  0.00  0.00    +0.000 C 
BRANCH  11  15
ATOM     14  OXT UNL     1      12.538   9.043  21.631  0.00  0.00    +0.000 OA
ATOM     15  C   UNL     1      12.987   8.534  22.638  0.00  0.00    +0.000 C 
BRANCH  15  16
ATOM     16  O   UNL     1      12.765   8.940  23.903  0.00  0.00    +0.000 OA
ATOM     17  H   UNL     1      17.375   8.198  22.815  0.00  0.00    +0.000 HD
ENDBRANCH  15  16
ENDBRANCH  11  15
BRANCH  12  18
ATOM     18  C   UNL     1      11.911   5.753  22.724  0.00  0.00    +0.000 C 
BRANCH  18  19
ATOM     19  S   UNL     1      11.735   3.978  22.970  0.00  0.00    +0.000 S 
BRANCH  19  21
ATOM     20  N   UNL     1       7.315   3.592  23.845  0.00  0.00    +0.000 N 
ATOM     21  C   UNL     1       9.983   3.825  23.317  0.00  0.00    +0.000 A 
ATOM     22  C   UNL     1       9.526   2.823  24.168  0.00  0.00    +0.000 A 
ATOM     23  C   UNL     1       9.078   4.708  22.736  0.00  0.00    +0.000 A 
ATOM     24  C   UNL     1       8.164   2.729  24.419  0.00  0.00    +0.000 A 
ATOM     25  C   UNL     1       7.727   4.566  23.022  0.00  0.00    +0.000 A 
BRANCH  20  26
ATOM     26  C   UNL     1       5.887   3.467  24.128  0.00  0.00    +0.000 C 
BRANCH  26  27
ATOM     27  C   UNL     1       5.646   3.601  25.621  0.00  0.00    +0.000 C 
BRANCH  27  28
ATOM     28  O   UNL     1       5.874   4.944  26.024  0.00  0.00    +0.000 OA
ATOM     29  H   UNL     1       1.072   8.762  27.882  0.00  0.00    +0.000 HD
ENDBRANCH  27  28
ENDBRANCH  26  27
ENDBRANCH  20  26
ENDBRANCH  19  21
ENDBRANCH  18  19
ENDBRANCH  12  18
ENDBRANCH   2   9
BRANCH   3  30
ATOM     30  CA  UNL     1      19.164   7.682  19.091  0.00  0.00    +0.000 C 
BRANCH  30  34
ATOM     31  S   UNL     1      22.784   8.834  17.821  0.00  0.00    +0.000 S 
ATOM     32  N   UNL     1      21.571   7.223  19.439  0.00  0.00    +0.000 NA
ATOM     33  N   UNL     1      23.932   7.091  19.471  0.00  0.00    +0.000 N 
ATOM     34  C   UNL     1      20.605   7.950  18.771  0.00  0.00    +0.000 A 
ATOM     35  C   UNL     1      21.070   8.870  17.856  0.00  0.00    +0.000 A 
ATOM     36  C   UNL     1      22.757   7.604  19.019  0.00  0.00    +0.000 A 
ATOM     37  H   UNL     1      18.971   9.204  21.658  0.00  0.00    +0.000 HD
ATOM     38  H   UNL     1      18.971   9.204  21.658  0.00  0.00    +0.000 HD
ENDBRANCH  30  34
BRANCH  30  40
ATOM     39  O   UNL     1      18.788   6.167  16.640  0.00  0.00    +0.000 OA
ATOM     40  N   UNL     1      18.891   6.273  18.967  0.00  0.00    +0.000 N 
ATOM     41  C   UNL     1      18.727   5.643  17.746  0.00  0.00    +0.000 C 
ATOM     42  H   UNL     1      17.381  10.081  19.192  0.00  0.00    +0.000 HD
BRANCH  41  45
ATOM     43  O   UNL     1      15.715   2.009  18.402  0.00  0.00    +0.000 OA
ATOM     44  N   UNL     1      19.493   3.283  17.802  0.00  0.00    +0.000 N 
ATOM     45  C   UNL     1      18.459   4.199  17.880  0.00  0.00    +0.000 A 
ATOM     46  C   UNL     1      17.179   3.846  18.079  0.00  0.00    +0.000 A 
ATOM     47  C   UNL     1      19.232   1.935  17.928  0.00  0.00    +0.000 A 
ATOM     48  C   UNL     1      16.865   2.391  18.219  0.00  0.00    +0.000 A 
ATOM     49  C   UNL     1      18.006   1.430  18.130  0.00  0.00    +0.000 A 
BRANCH  44  50
ATOM     50  O   UNL     1      20.802   3.697  17.601  0.00  0.00    +0.000 OA
ATOM     51  H   UNL     1      22.095   8.970  16.655  0.00  0.00    +0.000 HD
ENDBRANCH  44  50
BRANCH  49  52
ATOM     52  O   UNL     1      17.772   0.082  18.254  0.00  0.00    +0.000 OA
ATOM     53  H   UNL     1      22.095   8.970  16.655  0.00  0.00    +0.000 HD
ENDBRANCH  49  52
ENDBRANCH  41  45
ENDBRANCH  30  40
ENDBRANCH   3  30
TORSDOF 15
ENDMDL
MODEL 2
REMARK minimizedAffinity -8.11931324
REMARK minimizedRMSD -1
REMARK  Name = 163789
REMARK  15 active torsions:
REMARK  status: ('A' for Active; 'I' for Inactive)
REMARK    1  A    between atoms: S_2  and  C_26
REMARK    2  A    between atoms: S_2  and  C_31
REMARK    3  A    between atoms: O_5  and  C_28
REMARK    4  A    between atoms: O_9  and  N_18
REMARK    5  A    between atoms: O_10  and  C_42
REMARK    6  A    between atoms: O_11  and  C_45
REMARK    7  A    between atoms: N_14  and  CA_21
REMARK    8  A    between atoms: N_15  and  CA_29
REMARK    9  A    between atoms: N_17  and  C_40
REMARK   10  A    between atoms: CA_23  and  C_28
REMARK   11  A    between atoms: C_24  and  C_26
REMARK   12  A    between atoms: C_27  and  CA_29
REMARK   13  A    between atoms: CA_29  and  C_30
REMARK   14  A    between atoms: C_33  and  C_37
REMARK   15  A    between atoms: C_40  and  C_42
REMARK                            x       y       z     vdW  Elec       q    Type
REMARK                         _______ _______ _______ _____ _____    ______ ____
ROOT
ATOM      1  O   UNL     1      19.839   6.580  21.845  0.00  0.00    +0.000 OA
ATOM      2  N   UNL     1      17.645   6.967  21.198  0.00  0.00    +0.000 N 
ATOM      3  C   UNL     1      18.990   6.676  20.961  0.00  0.00    +0.000 C 
ATOM      4  H   UNL     1      17.894   7.597  21.890  0.00  0.00    +0.000 HD
ENDROOT
BRANCH   2   9
ATOM      5  S   UNL     1      15.617   4.883  21.764  0.00  0.00    +0.000 S 
ATOM      6  O   UNL     1      15.926   9.467  22.487  0.00  0.00    +0.000 OA
ATOM      7  N   UNL     1      15.066   7.287  22.748  0.00  0.00    +0.000 N 
ATOM      8  C   UNL     1      15.999   6.192  22.949  0.00  0.00    +0.000 C 
ATOM      9  CA  UNL     1      17.105   7.188  22.538  0.00  0.00    +0.000 C 
ATOM     10  C   UNL     1      15.985   8.265  22.599  0.00  0.00    +0.000 C 
ATOM     11  CA  UNL     1      13.716   7.138  22.746  0.00  0.00    +0.000 C 
ATOM     12  C   UNL     1      13.140   5.917  22.642  0.00  0.00    +0.000 C 
ATOM     13  C   UNL     1      13.931   4.630  22.418  0.00  0.00    +0.000 C 
BRANCH  11  15
ATOM     14  OXT UNL     1      12.406   8.895  21.826  0.00  0.00    +0.000 OA
ATOM     15  C   UNL     1      12.910   8.366  22.797  0.00  0.00    +0.000 C 
BRANCH  15  16
ATOM     16  O   UNL     1      12.827   8.794  24.071  0.00  0.00    +0.000 OA
ATOM     17  H   UNL     1      17.265   7.749  22.591  0.00  0.00    +0.000 HD
ENDBRANCH  15  16
ENDBRANCH  11  15
BRANCH  12  18
ATOM     18  C   UNL     1      11.653   5.661  22.713  0.00  0.00    +0.000 C 
BRANCH  18  19
ATOM     19  S   UNL     1      11.357   3.888  22.810  0.00  0.00    +0.000 S 
BRANCH  19  21
ATOM     20  N   UNL     1       7.027   3.734  24.107  0.00  0.00    +0.000 N 
ATOM     21  C   UNL     1       9.640   3.827  23.324  0.00  0.00    +0.000 A 
ATOM     22  C   UNL     1       9.233   2.905  24.283  0.00  0.00    +0.000 A 
ATOM     23  C   UNL     1       8.715   4.702  22.765  0.00  0.00    +0.000 A 
ATOM     24  C   UNL     1       7.898   2.880  24.662  0.00  0.00    +0.000 A 
ATOM     25  C   UNL     1       7.392   4.632  23.182  0.00  0.00    +0.000 A 
BRANCH  20  26
ATOM     26  C   UNL     1       5.629   3.684  24.527  0.00  0.00    +0.000 C 
BRANCH  26  27
ATOM     27  C   UNL     1       5.547   3.705  26.043  0.00  0.00    +0.000 C 
BRANCH  27  28
ATOM     28  O   UNL     1       5.712   5.035  26.512  0.00  0.00    +0.000 OA
ATOM     29  H   UNL     1       0.863   8.309  29.133  0.00  0.00    +0.000 HD
ENDBRANCH  27  28
ENDBRANCH  26  27
ENDBRANCH  20  26
ENDBRANCH  19  21
ENDBRANCH  18  19
ENDBRANCH  12  18
ENDBRANCH   2   9
BRANCH   3  30
ATOM     30  CA  UNL     1      19.309   6.534  19.478  0.00  0.00    +0.000 C 
BRANCH  30  34
ATOM     31  S   UNL     1      19.460   9.742  17.084  0.00  0.00    +0.000 S 
ATOM     32  N   UNL     1      18.941   8.982  19.500  0.00  0.00    +0.000 NA
ATOM     33  N   UNL     1      18.702  11.301  19.103  0.00  0.00    +0.000 N 
ATOM     34  C   UNL     1      19.296   7.860  18.777  0.00  0.00    +0.000 A 
ATOM     35  C   UNL     1      19.611   8.074  17.451  0.00  0.00    +0.000 A 
ATOM     36  C   UNL     1      18.992  10.032  18.711  0.00  0.00    +0.000 A 
ATOM     37  H   UNL     1      16.369   5.983  19.475  0.00  0.00    +0.000 HD
ATOM     38  H   UNL     1      16.369   5.983  19.475  0.00  0.00    +0.000 HD
ENDBRANCH  30  34
BRANCH  30  40
ATOM     39  O   UNL     1      20.062   4.411  17.644  0.00  0.00    +0.000 OA
ATOM     40  N   UNL     1      20.604   5.921  19.336  0.00  0.00    +0.000 N 
ATOM     41  C   UNL     1      20.861   4.910  18.427  0.00  0.00    +0.000 C 
ATOM     42  H   UNL     1      16.895   5.802  21.085  0.00  0.00    +0.000 HD
BRANCH  41  45
ATOM     43  O   UNL     1      25.404   5.247  17.025  0.00  0.00    +0.000 OA
ATOM     44  N   UNL     1      22.625   3.381  19.273  0.00  0.00    +0.000 N 
ATOM     45  C   UNL     1      22.261   4.448  18.470  0.00  0.00    +0.000 A 
ATOM     46  C   UNL     1      23.134   5.114  17.696  0.00  0.00    +0.000 A 
ATOM     47  C   UNL     1      23.936   2.956  19.306  0.00  0.00    +0.000 A 
ATOM     48  C   UNL     1      24.563   4.676  17.711  0.00  0.00    +0.000 A 
ATOM     49  C   UNL     1      24.919   3.521  18.590  0.00  0.00    +0.000 A 
BRANCH  44  50
ATOM     50  O   UNL     1      21.685   2.720  20.052  0.00  0.00    +0.000 OA
ATOM     51  H   UNL     1      16.465   4.443  20.439  0.00  0.00    +0.000 HD
ENDBRANCH  44  50
BRANCH  49  52
ATOM     52  O   UNL     1      26.219   3.079  18.638  0.00  0.00    +0.000 OA
ATOM     53  H   UNL     1      16.465   4.443  20.439  0.00  0.00    +0.000 HD
ENDBRANCH  49  52
ENDBRANCH  41  45
ENDBRANCH  30  40
ENDBRANCH   3  30
TORSDOF 15
ENDMDL
MODEL 3
REMARK minimizedAffinity -7.92205191
REMARK minimizedRMSD -1
REMARK  Name = 163789
REMARK  15 active torsions:
REMARK  status: ('A' for Active; 'I' for Inactive)
REMARK    1  A    between atoms: S_2  and  C_26
REMARK    2  A    between atoms: S_2  and  C_31
REMARK    3  A    between atoms: O_5  and  C_28
REMARK    4  A    between atoms: O_9  and  N_18
REMARK    5  A    between atoms: O_10  and  C_42
REMARK    6  A    between atoms: O_11  and  C_45
REMARK    7  A    between atoms: N_14  and  CA_21
REMARK    8  A    between atoms: N_15  and  CA_29
REMARK    9  A    between atoms: N_17  and  C_40
REMARK   10  A    between atoms: CA_23  and  C_28
REMARK   11  A    between atoms: C_24  and  C_26
REMARK   12  A    between atoms: C_27  and  CA_29
REMARK   13  A    between atoms: CA_29  and  C_30
REMARK   14  A    between atoms: C_33  and  C_37
REMARK   15  A    between atoms: C_40  and  C_42
REMARK                            x       y       z     vdW  Elec       q    Type
REMARK                         _______ _______ _______ _____ _____    ______ ____
ROOT
ATOM      1  O   UNL     1      23.402   9.183  19.224  0.00  0.00    +0.000 OA
ATOM      2  N   UNL     1      21.142   8.872  18.804  0.00  0.00    +0.000 N 
ATOM      3  C   UNL     1      22.500   8.787  18.489  0.00  0.00    +0.000 C 
ATOM      4  H   UNL     1      21.280   9.744  19.202  0.00  0.00    +0.000 HD
ENDROOT
BRANCH   2   9
ATOM      5  S   UNL     1      19.753   6.758  20.346  0.00  0.00    +0.000 S 
ATOM      6  O   UNL     1      18.930  11.239  19.412  0.00  0.00    +0.000 OA
ATOM      7  N   UNL     1      18.673   9.177  20.527  0.00  0.00    +0.000 N 
ATOM      8  C   UNL     1      19.865   8.460  20.943  0.00  0.00    +0.000 C 
ATOM      9  CA  UNL     1      20.652   9.448  20.055  0.00  0.00    +0.000 C 
ATOM     10  C   UNL     1      19.301  10.205  19.916  0.00  0.00    +0.000 C 
ATOM     11  CA  UNL     1      17.408   8.752  20.780  0.00  0.00    +0.000 C 
ATOM     12  C   UNL     1      17.157   7.485  21.186  0.00  0.00    +0.000 C 
ATOM     13  C   UNL     1      18.234   6.407  21.296  0.00  0.00    +0.000 C 
BRANCH  11  15
ATOM     14  OXT UNL     1      15.708   9.793  19.488  0.00  0.00    +0.000 OA
ATOM     15  C   UNL     1      16.321   9.709  20.533  0.00  0.00    +0.000 C 
BRANCH  15  16
ATOM     16  O   UNL     1      16.125  10.458  21.635  0.00  0.00    +0.000 OA
ATOM     17  H   UNL     1      20.694  10.126  20.221  0.00  0.00    +0.000 HD
ENDBRANCH  15  16
ENDBRANCH  11  15
BRANCH  12  18
ATOM     18  C   UNL     1      15.792   6.960  21.566  0.00  0.00    +0.000 C 
BRANCH  18  19
ATOM     19  S   UNL     1      15.592   7.057  23.353  0.00  0.00    +0.000 S 
BRANCH  19  21
ATOM     20  N   UNL     1      12.130   4.234  24.059  0.00  0.00    +0.000 N 
ATOM     21  C   UNL     1      14.219   5.938  23.632  0.00  0.00    +0.000 A 
ATOM     22  C   UNL     1      13.377   5.593  22.581  0.00  0.00    +0.000 A 
ATOM     23  C   UNL     1      13.996   5.414  24.902  0.00  0.00    +0.000 A 
ATOM     24  C   UNL     1      12.322   4.724  22.827  0.00  0.00    +0.000 A 
ATOM     25  C   UNL     1      12.926   4.550  25.089  0.00  0.00    +0.000 A 
BRANCH  20  26
ATOM     26  C   UNL     1      11.012   3.322  24.287  0.00  0.00    +0.000 C 
BRANCH  26  27
ATOM     27  C   UNL     1      10.245   3.117  22.992  0.00  0.00    +0.000 C 
BRANCH  27  28
ATOM     28  O   UNL     1       8.866   2.936  23.278  0.00  0.00    +0.000 OA
ATOM     29  H   UNL     1       4.497   7.367  21.735  0.00  0.00    +0.000 HD
ENDBRANCH  27  28
ENDBRANCH  26  27
ENDBRANCH  20  26
ENDBRANCH  19  21
ENDBRANCH  18  19
ENDBRANCH  12  18
ENDBRANCH   2   9
BRANCH   3  30
ATOM     30  CA  UNL     1      22.748   8.189  17.111  0.00  0.00    +0.000 C 
BRANCH  30  34
ATOM     31  S   UNL     1      26.622   7.380  16.494  0.00  0.00    +0.000 S 
ATOM     32  N   UNL     1      24.824   9.220  16.242  0.00  0.00    +0.000 NA
ATOM     33  N   UNL     1      26.990   9.824  15.509  0.00  0.00    +0.000 N 
ATOM     34  C   UNL     1      24.212   8.111  16.793  0.00  0.00    +0.000 A 
ATOM     35  C   UNL     1      25.025   7.018  17.004  0.00  0.00    +0.000 A 
ATOM     36  C   UNL     1      26.095   8.950  16.042  0.00  0.00    +0.000 A 
ATOM     37  H   UNL     1      21.659   7.798  14.353  0.00  0.00    +0.000 HD
ATOM     38  H   UNL     1      21.659   7.798  14.353  0.00  0.00    +0.000 HD
ENDBRANCH  30  34
BRANCH  30  40
ATOM     39  O   UNL     1      20.472   7.323  15.526  0.00  0.00    +0.000 OA
ATOM     40  N   UNL     1      22.168   6.872  17.062  0.00  0.00    +0.000 N 
ATOM     41  C   UNL     1      21.078   6.560  16.270  0.00  0.00    +0.000 C 
ATOM     42  H   UNL     1      22.105  10.617  18.735  0.00  0.00    +0.000 HD
BRANCH  41  45
ATOM     43  O   UNL     1      21.901   1.915  15.591  0.00  0.00    +0.000 OA
ATOM     44  N   UNL     1      19.460   4.813  16.971  0.00  0.00    +0.000 N 
ATOM     45  C   UNL     1      20.671   5.148  16.390  0.00  0.00    +0.000 A 
ATOM     46  C   UNL     1      21.531   4.235  15.909  0.00  0.00    +0.000 A 
ATOM     47  C   UNL     1      19.088   3.489  17.080  0.00  0.00    +0.000 A 
ATOM     48  C   UNL     1      21.156   2.792  16.013  0.00  0.00    +0.000 A 
ATOM     49  C   UNL     1      19.841   2.467  16.646  0.00  0.00    +0.000 A 
BRANCH  44  50
ATOM     50  O   UNL     1      18.601   5.792  17.449  0.00  0.00    +0.000 OA
ATOM     51  H   UNL     1      19.990  11.124  17.526  0.00  0.00    +0.000 HD
ENDBRANCH  44  50
BRANCH  49  52
ATOM     52  O   UNL     1      19.448   1.156  16.763  0.00  0.00    +0.000 OA
ATOM     53  H   UNL     1      19.990  11.124  17.526  0.00  0.00    +0.000 HD
ENDBRANCH  49  52
ENDBRANCH  41  45
ENDBRANCH  30  40
ENDBRANCH   3  30
TORSDOF 15
ENDMDL
MODEL 4
REMARK minimizedAffinity -7.91655493
REMARK minimizedRMSD -1
REMARK  Name = 163789
REMARK  15 active torsions:
REMARK  status: ('A' for Active; 'I' for Inactive)
REMARK    1  A    between atoms: S_2  and  C_26
REMARK    2  A    between atoms: S_2  and  C_31
REMARK    3  A    between atoms: O_5  and  C_28
REMARK    4  A    between atoms: O_9  and  N_18
REMARK    5  A    between atoms: O_10  and  C_42
REMARK    6  A    between atoms: O_11  and  C_45
REMARK    7  A    between atoms: N_14  and  CA_21
REMARK    8  A    between atoms: N_15  and  CA_29
REMARK    9  A    between atoms: N_17  and  C_40
REMARK   10  A    between atoms: CA_23  and  C_28
REMARK   11  A    between atoms: C_24  and  C_26
REMARK   12  A    between atoms: C_27  and  CA_29
REMARK   13  A    between atoms: CA_29  and  C_30
REMARK   14  A    between atoms: C_33  and  C_37
REMARK   15  A    between atoms: C_40  and  C_42
REMARK                            x       y       z     vdW  Elec       q    Type
REMARK                         _______ _______ _______ _____ _____    ______ ____
ROOT
ATOM      1  O   UNL     1      19.744   0.905  21.477  0.00  0.00    +0.000 OA
ATOM      2  N   UNL     1      19.971   3.068  20.667  0.00  0.00    +0.000 N 
ATOM      3  C   UNL     1      19.766   2.119  21.672  0.00  0.00    +0.000 C 
ATOM      4  H   UNL     1      19.431   2.548  20.054  0.00  0.00    +0.000 HD
ENDROOT
BRANCH   2   9
ATOM      5  S   UNL     1      22.363   4.501  19.668  0.00  0.00    +0.000 S 
ATOM      6  O   UNL     1      18.136   3.558  17.973  0.00  0.00    +0.000 OA
ATOM      7  N   UNL     1      20.395   4.230  17.906  0.00  0.00    +0.000 N 
ATOM      8  C   UNL     1      21.380   3.422  18.603  0.00  0.00    +0.000 C 
ATOM      9  CA  UNL     1      20.183   2.708  19.267  0.00  0.00    +0.000 C 
ATOM     10  C   UNL     1      19.307   3.515  18.267  0.00  0.00    +0.000 C 
ATOM     11  CA  UNL     1      20.702   5.332  17.175  0.00  0.00    +0.000 C 
ATOM     12  C   UNL     1      21.913   5.931  17.275  0.00  0.00    +0.000 C 
ATOM     13  C   UNL     1      22.986   5.497  18.271  0.00  0.00    +0.000 C 
BRANCH  11  15
ATOM     14  OXT UNL     1      18.784   6.652  16.703  0.00  0.00    +0.000 OA
ATOM     15  C   UNL     1      19.641   5.883  16.320  0.00  0.00    +0.000 C 
BRANCH  15  16
ATOM     16  O   UNL     1      19.778   5.399  15.069  0.00  0.00    +0.000 OA
ATOM     17  H   UNL     1      19.923   2.084  18.530  0.00  0.00    +0.000 HD
ENDBRANCH  15  16
ENDBRANCH  11  15
BRANCH  12  18
ATOM     18  C   UNL     1      22.359   7.107  16.439  0.00  0.00    +0.000 C 
BRANCH  18  19
ATOM     19  S   UNL     1      22.950   8.418  17.522  0.00  0.00    +0.000 S 
BRANCH  19  21
ATOM     20  N   UNL     1      19.102   9.898  19.381  0.00  0.00    +0.000 N 
ATOM     21  C   UNL     1      21.425   9.005  18.259  0.00  0.00    +0.000 A 
ATOM     22  C   UNL     1      21.281   9.023  19.643  0.00  0.00    +0.000 A 
ATOM     23  C   UNL     1      20.383   9.443  17.448  0.00  0.00    +0.000 A 
ATOM     24  C   UNL     1      20.089   9.483  20.186  0.00  0.00    +0.000 A 
ATOM     25  C   UNL     1      19.213   9.892  18.046  0.00  0.00    +0.000 A 
BRANCH  20  26
ATOM     26  C   UNL     1      17.860  10.377  19.982  0.00  0.00    +0.000 C 
BRANCH  26  27
ATOM     27  C   UNL     1      16.894  10.806  18.891  0.00  0.00    +0.000 C 
BRANCH  27  28
ATOM     28  O   UNL     1      15.590  10.331  19.193  0.00  0.00    +0.000 OA
ATOM     29  H   UNL     1      10.859  14.315  20.878  0.00  0.00    +0.000 HD
ENDBRANCH  27  28
ENDBRANCH  26  27
ENDBRANCH  20  26
ENDBRANCH  19  21
ENDBRANCH  18  19
ENDBRANCH  12  18
ENDBRANCH   2   9
BRANCH   3  30
ATOM     30  CA  UNL     1      19.525   2.750  23.037  0.00  0.00    +0.000 C 
BRANCH  30  34
ATOM     31  S   UNL     1      22.628   3.483  25.462  0.00  0.00    +0.000 S 
ATOM     32  N   UNL     1      21.922   3.363  22.978  0.00  0.00    +0.000 NA
ATOM     33  N   UNL     1      24.187   3.932  23.354  0.00  0.00    +0.000 N 
ATOM     34  C   UNL     1      20.813   3.061  23.742  0.00  0.00    +0.000 A 
ATOM     35  C   UNL     1      21.000   3.076  25.108  0.00  0.00    +0.000 A 
ATOM     36  C   UNL     1      22.938   3.603  23.778  0.00  0.00    +0.000 A 
ATOM     37  H   UNL     1      20.114  -0.069  22.226  0.00  0.00    +0.000 HD
ATOM     38  H   UNL     1      20.114  -0.069  22.226  0.00  0.00    +0.000 HD
ENDBRANCH  30  34
BRANCH  30  40
ATOM     39  O   UNL     1      16.633   3.026  23.089  0.00  0.00    +0.000 OA
ATOM     40  N   UNL     1      18.760   3.957  22.865  0.00  0.00    +0.000 N 
ATOM     41  C   UNL     1      17.377   3.983  22.907  0.00  0.00    +0.000 C 
ATOM     42  H   UNL     1      20.398   0.624  21.122  0.00  0.00    +0.000 HD
BRANCH  41  45
ATOM     43  O   UNL     1      14.803   7.698  24.418  0.00  0.00    +0.000 OA
ATOM     44  N   UNL     1      17.085   6.035  21.541  0.00  0.00    +0.000 N 
ATOM     45  C   UNL     1      16.826   5.336  22.707  0.00  0.00    +0.000 A 
ATOM     46  C   UNL     1      16.074   5.828  23.706  0.00  0.00    +0.000 A 
ATOM     47  C   UNL     1      16.566   7.300  21.363  0.00  0.00    +0.000 A 
ATOM     48  C   UNL     1      15.497   7.197  23.541  0.00  0.00    +0.000 A 
ATOM     49  C   UNL     1      15.798   7.923  22.270  0.00  0.00    +0.000 A 
BRANCH  44  50
ATOM     50  O   UNL     1      17.865   5.482  20.535  0.00  0.00    +0.000 OA
ATOM     51  H   UNL     1      20.408   0.630  21.129  0.00  0.00    +0.000 HD
ENDBRANCH  44  50
BRANCH  49  52
ATOM     52  O   UNL     1      15.290   9.183  22.068  0.00  0.00    +0.000 OA
ATOM     53  H   UNL     1      20.408   0.630  21.129  0.00  0.00    +0.000 HD
ENDBRANCH  49  52
ENDBRANCH  41  45
ENDBRANCH  30  40
ENDBRANCH   3  30
TORSDOF 15
ENDMDL
MODEL 5
REMARK minimizedAffinity -7.85464334
REMARK minimizedRMSD -1
REMARK  Name = 163789
REMARK  15 active torsions:
REMARK  status: ('A' for Active; 'I' for Inactive)
REMARK    1  A    between atoms: S_2  and  C_26
REMARK    2  A    between atoms: S_2  and  C_31
REMARK    3  A    between atoms: O_5  and  C_28
REMARK    4  A    between atoms: O_9  and  N_18
REMARK    5  A    between atoms: O_10  and  C_42
REMARK    6  A    between atoms: O_11  and  C_45
REMARK    7  A    between atoms: N_14  and  CA_21
REMARK    8  A    between atoms: N_15  and  CA_29
REMARK    9  A    between atoms: N_17  and  C_40
REMARK   10  A    between atoms: CA_23  and  C_28
REMARK   11  A    between atoms: C_24  and  C_26
REMARK   12  A    between atoms: C_27  and  CA_29
REMARK   13  A    between atoms: CA_29  and  C_30
REMARK   14  A    between atoms: C_33  and  C_37
REMARK   15  A    between atoms: C_40  and  C_42
REMARK                            x       y       z     vdW  Elec       q    Type
REMARK                         _______ _______ _______ _____ _____    ______ ____
ROOT
ATOM      1  O   UNL     1      19.986   9.751  18.892  0.00  0.00    +0.000 OA
ATOM      2  N   UNL     1      18.154   8.442  19.453  0.00  0.00    +0.000 N 
ATOM      3  C   UNL     1      19.301   8.745  18.716  0.00  0.00    +0.000 C 
ATOM      4  H   UNL     1      17.897   9.376  19.453  0.00  0.00    +0.000 HD
ENDROOT
BRANCH   2   9
ATOM      5  S   UNL     1      18.113   6.894  21.977  0.00  0.00    +0.000 S 
ATOM      6  O   UNL     1      15.230   9.895  19.901  0.00  0.00    +0.000 OA
ATOM      7  N   UNL     1      16.098   8.595  21.667  0.00  0.00    +0.000 N 
ATOM      8  C   UNL     1      17.532   8.603  21.895  0.00  0.00    +0.000 C 
ATOM      9  CA  UNL     1      17.648   9.300  20.521  0.00  0.00    +0.000 C 
ATOM     10  C   UNL     1      16.097   9.393  20.577  0.00  0.00    +0.000 C 
ATOM     11  CA  UNL     1      15.214   7.915  22.441  0.00  0.00    +0.000 C 
ATOM     12  C   UNL     1      15.624   6.960  23.310  0.00  0.00    +0.000 C 
ATOM     13  C   UNL     1      17.074   6.494  23.425  0.00  0.00    +0.000 C 
BRANCH  11  15
ATOM     14  OXT UNL     1      13.024   7.529  21.602  0.00  0.00    +0.000 OA
ATOM     15  C   UNL     1      13.788   8.217  22.248  0.00  0.00    +0.000 C 
BRANCH  15  16
ATOM     16  O   UNL     1      13.481   9.359  22.895  0.00  0.00    +0.000 OA
ATOM     17  H   UNL     1      17.376   9.614  20.110  0.00  0.00    +0.000 HD
ENDBRANCH  15  16
ENDBRANCH  11  15
BRANCH  12  18
ATOM     18  C   UNL     1      14.715   6.219  24.262  0.00  0.00    +0.000 C 
BRANCH  18  19
ATOM     19  S   UNL     1      14.768   4.459  23.888  0.00  0.00    +0.000 S 
BRANCH  19  21
ATOM     20  N   UNL     1      10.376   3.382  23.838  0.00  0.00    +0.000 N 
ATOM     21  C   UNL     1      13.027   4.032  23.868  0.00  0.00    +0.000 A 
ATOM     22  C   UNL     1      12.170   4.644  22.959  0.00  0.00    +0.000 A 
ATOM     23  C   UNL     1      12.531   3.087  24.761  0.00  0.00    +0.000 A 
ATOM     24  C   UNL     1      10.827   4.294  22.966  0.00  0.00    +0.000 A 
ATOM     25  C   UNL     1      11.179   2.776  24.723  0.00  0.00    +0.000 A 
BRANCH  20  26
ATOM     26  C   UNL     1       8.957   3.033  23.820  0.00  0.00    +0.000 C 
BRANCH  26  27
ATOM     27  C   UNL     1       8.154   4.180  23.232  0.00  0.00    +0.000 C 
BRANCH  27  28
ATOM     28  O   UNL     1       7.376   3.708  22.142  0.00  0.00    +0.000 OA
ATOM     29  H   UNL     1       0.989   3.289  22.495  0.00  0.00    +0.000 HD
ENDBRANCH  27  28
ENDBRANCH  26  27
ENDBRANCH  20  26
ENDBRANCH  19  21
ENDBRANCH  18  19
ENDBRANCH  12  18
ENDBRANCH   2   9
BRANCH   3  30
ATOM     30  CA  UNL     1      19.593   7.717  17.631  0.00  0.00    +0.000 C 
BRANCH  30  34
ATOM     31  S   UNL     1      23.564   7.292  17.320  0.00  0.00    +0.000 S 
ATOM     32  N   UNL     1      21.468   8.154  16.075  0.00  0.00    +0.000 NA
ATOM     33  N   UNL     1      23.506   8.395  14.900  0.00  0.00    +0.000 N 
ATOM     34  C   UNL     1      21.054   7.659  17.297  0.00  0.00    +0.000 A 
ATOM     35  C   UNL     1      22.047   7.151  18.108  0.00  0.00    +0.000 A 
ATOM     36  C   UNL     1      22.771   8.012  15.978  0.00  0.00    +0.000 A 
ATOM     37  H   UNL     1      18.661   5.374  16.022  0.00  0.00    +0.000 HD
ATOM     38  H   UNL     1      18.661   5.374  16.022  0.00  0.00    +0.000 HD
ENDBRANCH  30  34
BRANCH  30  40
ATOM     39  O   UNL     1      18.980   5.397  15.993  0.00  0.00    +0.000 OA
ATOM     40  N   UNL     1      19.144   6.425  18.079  0.00  0.00    +0.000 N 
ATOM     41  C   UNL     1      18.878   5.379  17.214  0.00  0.00    +0.000 C 
ATOM     42  H   UNL     1      18.125  10.150  16.694  0.00  0.00    +0.000 HD
BRANCH  41  45
ATOM     43  O   UNL     1      16.275   3.211  20.566  0.00  0.00    +0.000 OA
ATOM     44  N   UNL     1      18.919   2.918  17.537  0.00  0.00    +0.000 N 
ATOM     45  C   UNL     1      18.434   4.159  17.913  0.00  0.00    +0.000 A 
ATOM     46  C   UNL     1      17.553   4.330  18.912  0.00  0.00    +0.000 A 
ATOM     47  C   UNL     1      18.498   1.782  18.196  0.00  0.00    +0.000 A 
ATOM     48  C   UNL     1      17.079   3.117  19.646  0.00  0.00    +0.000 A 
ATOM     49  C   UNL     1      17.623   1.794  19.213  0.00  0.00    +0.000 A 
BRANCH  44  50
ATOM     50  O   UNL     1      19.833   2.792  16.500  0.00  0.00    +0.000 OA
ATOM     51  H   UNL     1      21.382   7.092  13.421  0.00  0.00    +0.000 HD
ENDBRANCH  44  50
BRANCH  49  52
ATOM     52  O   UNL     1      17.220   0.648  19.855  0.00  0.00    +0.000 OA
ATOM     53  H   UNL     1      21.382   7.092  13.421  0.00  0.00    +0.000 HD
ENDBRANCH  49  52
ENDBRANCH  41  45
ENDBRANCH  30  40
ENDBRANCH   3  30
TORSDOF 15
ENDMDL
MODEL 6
REMARK minimizedAffinity -7.74350166
REMARK minimizedRMSD -1
REMARK  Name = 163789
REMARK  15 active torsions:
REMARK  status: ('A' for Active; 'I' for Inactive)
REMARK    1  A    between atoms: S_2  and  C_26
REMARK    2  A    between atoms: S_2  and  C_31
REMARK    3  A    between atoms: O_5  and  C_28
REMARK    4  A    between atoms: O_9  and  N_18
REMARK    5  A    between atoms: O_10  and  C_42
REMARK    6  A    between atoms: O_11  and  C_45
REMARK    7  A    between atoms: N_14  and  CA_21
REMARK    8  A    between atoms: N_15  and  CA_29
REMARK    9  A    between atoms: N_17  and  C_40
REMARK   10  A    between atoms: CA_23  and  C_28
REMARK   11  A    between atoms: C_24  and  C_26
REMARK   12  A    between atoms: C_27  and  CA_29
REMARK   13  A    between atoms: CA_29  and  C_30
REMARK   14  A    between atoms: C_33  and  C_37
REMARK   15  A    between atoms: C_40  and  C_42
REMARK                            x       y       z     vdW  Elec       q    Type
REMARK                         _______ _______ _______ _____ _____    ______ ____
ROOT
ATOM      1  O   UNL     1      20.199   7.162  16.284  0.00  0.00    +0.000 OA
ATOM      2  N   UNL     1      20.399   6.541  18.511  0.00  0.00    +0.000 N 
ATOM      3  C   UNL     1      20.358   7.466  17.465  0.00  0.00    +0.000 C 
ATOM      4  H   UNL     1      20.898   5.924  17.957  0.00  0.00    +0.000 HD
ENDROOT
BRANCH   2   9
ATOM      5  S   UNL     1      17.739   5.698  19.503  0.00  0.00    +0.000 S 
ATOM      6  O   UNL     1      22.049   3.969  19.748  0.00  0.00    +0.000 OA
ATOM      7  N   UNL     1      19.696   3.951  19.909  0.00  0.00    +0.000 N 
ATOM      8  C   UNL     1      18.922   4.516  18.819  0.00  0.00    +0.000 C 
ATOM      9  CA  UNL     1      20.255   5.102  18.304  0.00  0.00    +0.000 C 
ATOM     10  C   UNL     1      20.920   4.234  19.410  0.00  0.00    +0.000 C 
ATOM     11  CA  UNL     1      19.145   3.368  21.004  0.00  0.00    +0.000 C 
ATOM     12  C   UNL     1      17.834   3.524  21.304  0.00  0.00    +0.000 C 
ATOM     13  C   UNL     1      16.894   4.434  20.516  0.00  0.00    +0.000 C 
BRANCH  11  15
ATOM     14  OXT UNL     1      20.692   3.104  22.789  0.00  0.00    +0.000 OA
ATOM     15  C   UNL     1      20.049   2.612  21.884  0.00  0.00    +0.000 C 
BRANCH  15  16
ATOM     16  O   UNL     1      20.042   1.314  21.523  0.00  0.00    +0.000 OA
ATOM     17  H   UNL     1      20.675   4.397  17.907  0.00  0.00    +0.000 HD
ENDBRANCH  15  16
ENDBRANCH  11  15
BRANCH  12  18
ATOM     18  C   UNL     1      17.130   2.845  22.454  0.00  0.00    +0.000 C 
BRANCH  18  19
ATOM     19  S   UNL     1      17.425   3.774  23.967  0.00  0.00    +0.000 S 
BRANCH  19  21
ATOM     20  N   UNL     1      14.194   6.932  23.768  0.00  0.00    +0.000 N 
ATOM     21  C   UNL     1      16.144   5.026  23.889  0.00  0.00    +0.000 A 
ATOM     22  C   UNL     1      14.830   4.699  24.208  0.00  0.00    +0.000 A 
ATOM     23  C   UNL     1      16.463   6.326  23.508  0.00  0.00    +0.000 A 
ATOM     24  C   UNL     1      13.859   5.689  24.138  0.00  0.00    +0.000 A 
ATOM     25  C   UNL     1      15.451   7.274  23.456  0.00  0.00    +0.000 A 
BRANCH  20  26
ATOM     26  C   UNL     1      13.150   7.952  23.705  0.00  0.00    +0.000 C 
BRANCH  26  27
ATOM     27  C   UNL     1      13.128   8.578  22.322  0.00  0.00    +0.000 C 
BRANCH  27  28
ATOM     28  O   UNL     1      12.386   9.789  22.357  0.00  0.00    +0.000 OA
ATOM     29  H   UNL     1      15.221  15.499  21.686  0.00  0.00    +0.000 HD
ENDBRANCH  27  28
ENDBRANCH  26  27
ENDBRANCH  20  26
ENDBRANCH  19  21
ENDBRANCH  18  19
ENDBRANCH  12  18
ENDBRANCH   2   9
BRANCH   3  30
ATOM     30  CA  UNL     1      20.578   8.897  17.936  0.00  0.00    +0.000 C 
BRANCH  30  34
ATOM     31  S   UNL     1      17.167  10.716  18.986  0.00  0.00    +0.000 S 
ATOM     32  N   UNL     1      19.064   9.199  19.871  0.00  0.00    +0.000 NA
ATOM     33  N   UNL     1      17.383   9.730  21.448  0.00  0.00    +0.000 N 
ATOM     34  C   UNL     1      19.337   9.479  18.547  0.00  0.00    +0.000 A 
ATOM     35  C   UNL     1      18.424  10.286  17.901  0.00  0.00    +0.000 A 
ATOM     36  C   UNL     1      17.944   9.798  20.211  0.00  0.00    +0.000 A 
ATOM     37  H   UNL     1      19.593   6.113  17.460  0.00  0.00    +0.000 HD
ATOM     38  H   UNL     1      19.593   6.113  17.460  0.00  0.00    +0.000 HD
ENDBRANCH  30  34
BRANCH  30  40
ATOM     39  O   UNL     1      23.430   9.029  17.399  0.00  0.00    +0.000 OA
ATOM     40  N   UNL     1      21.649   8.913  18.899  0.00  0.00    +0.000 N 
ATOM     41  C   UNL     1      22.982   8.978  18.539  0.00  0.00    +0.000 C 
ATOM     42  H   UNL     1      19.267   6.683  16.412  0.00  0.00    +0.000 HD
BRANCH  41  45
ATOM     43  O   UNL     1      25.587  11.306  21.780  0.00  0.00    +0.000 OA
ATOM     44  N   UNL     1      24.296   7.794  20.280  0.00  0.00    +0.000 N 
ATOM     45  C   UNL     1      23.888   8.983  19.702  0.00  0.00    +0.000 A 
ATOM     46  C   UNL     1      24.279  10.188  20.149  0.00  0.00    +0.000 A 
ATOM     47  C   UNL     1      25.143   7.809  21.369  0.00  0.00    +0.000 A 
ATOM     48  C   UNL     1      25.197  10.236  21.328  0.00  0.00    +0.000 A 
ATOM     49  C   UNL     1      25.617   8.933  21.927  0.00  0.00    +0.000 A 
BRANCH  44  50
ATOM     50  O   UNL     1      23.869   6.572  19.779  0.00  0.00    +0.000 OA
ATOM     51  H   UNL     1      20.171   6.204  15.710  0.00  0.00    +0.000 HD
ENDBRANCH  44  50
BRANCH  49  52
ATOM     52  O   UNL     1      26.462   8.922  23.010  0.00  0.00    +0.000 OA
ATOM     53  H   UNL     1      20.171   6.204  15.710  0.00  0.00    +0.000 HD
ENDBRANCH  49  52
ENDBRANCH  41  45
ENDBRANCH  30  40
ENDBRANCH   3  30
TORSDOF 15
ENDMDL
MODEL 7
REMARK minimizedAffinity -7.68650913
REMARK minimizedRMSD -1
REMARK  Name = 163789
REMARK  15 active torsions:
REMARK  status: ('A' for Active; 'I' for Inactive)
REMARK    1  A    between atoms: S_2  and  C_26
REMARK    2  A    between atoms: S_2  and  C_31
REMARK    3  A    between atoms: O_5  and  C_28
REMARK    4  A    between atoms: O_9  and  N_18
REMARK    5  A    between atoms: O_10  and  C_42
REMARK    6  A    between atoms: O_11  and  C_45
REMARK    7  A    between atoms: N_14  and  CA_21
REMARK    8  A    between atoms: N_15  and  CA_29
REMARK    9  A    between atoms: N_17  and  C_40
REMARK   10  A    between atoms: CA_23  and  C_28
REMARK   11  A    between atoms: C_24  and  C_26
REMARK   12  A    between atoms: C_27  and  CA_29
REMARK   13  A    between atoms: CA_29  and  C_30
REMARK   14  A    between atoms: C_33  and  C_37
REMARK   15  A    between atoms: C_40  and  C_42
REMARK                            x       y       z     vdW  Elec       q    Type
REMARK                         _______ _______ _______ _____ _____    ______ ____
ROOT
ATOM      1  O   UNL     1      11.806   1.224  21.586  0.00  0.00    +0.000 OA
ATOM      2  N   UNL     1      12.267   3.029  22.969  0.00  0.00    +0.000 N 
ATOM      3  C   UNL     1      11.828   1.730  22.707  0.00  0.00    +0.000 C 
ATOM      4  H   UNL     1      11.850   3.344  22.155  0.00  0.00    +0.000 HD
ENDROOT
BRANCH   2   9
ATOM      5  S   UNL     1      15.213   2.778  22.791  0.00  0.00    +0.000 S 
ATOM      6  O   UNL     1      12.193   6.313  22.693  0.00  0.00    +0.000 OA
ATOM      7  N   UNL     1      14.267   5.228  22.405  0.00  0.00    +0.000 N 
ATOM      8  C   UNL     1      14.288   3.931  21.753  0.00  0.00    +0.000 C 
ATOM      9  CA  UNL     1      12.753   3.929  21.926  0.00  0.00    +0.000 C 
ATOM     10  C   UNL     1      12.927   5.402  22.391  0.00  0.00    +0.000 C 
ATOM     11  CA  UNL     1      15.382   5.882  22.823  0.00  0.00    +0.000 C 
ATOM     12  C   UNL     1      16.574   5.249  22.927  0.00  0.00    +0.000 C 
ATOM     13  C   UNL     1      16.755   3.751  22.688  0.00  0.00    +0.000 C 
BRANCH  11  15
ATOM     14  OXT UNL     1      14.899   7.654  24.331  0.00  0.00    +0.000 OA
ATOM     15  C   UNL     1      15.222   7.288  23.219  0.00  0.00    +0.000 C 
BRANCH  15  16
ATOM     16  O   UNL     1      15.488   8.083  22.164  0.00  0.00    +0.000 OA
ATOM     17  H   UNL     1      12.454   4.484  21.251  0.00  0.00    +0.000 HD
ENDBRANCH  15  16
ENDBRANCH  11  15
BRANCH  12  18
ATOM     18  C   UNL     1      17.873   5.922  23.305  0.00  0.00    +0.000 C 
BRANCH  18  19
ATOM     19  S   UNL     1      19.119   5.554  22.059  0.00  0.00    +0.000 S 
BRANCH  19  21
ATOM     20  N   UNL     1      18.710   9.083  19.260  0.00  0.00    +0.000 N 
ATOM     21  C   UNL     1      18.957   6.953  20.949  0.00  0.00    +0.000 A 
ATOM     22  C   UNL     1      18.768   6.743  19.586  0.00  0.00    +0.000 A 
ATOM     23  C   UNL     1      19.020   8.250  21.449  0.00  0.00    +0.000 A 
ATOM     24  C   UNL     1      18.646   7.845  18.751  0.00  0.00    +0.000 A 
ATOM     25  C   UNL     1      18.891   9.314  20.567  0.00  0.00    +0.000 A 
BRANCH  20  26
ATOM     26  C   UNL     1      18.577  10.222  18.355  0.00  0.00    +0.000 C 
BRANCH  26  27
ATOM     27  C   UNL     1      17.140  10.712  18.355  0.00  0.00    +0.000 C 
BRANCH  27  28
ATOM     28  O   UNL     1      17.078  12.012  18.924  0.00  0.00    +0.000 OA
ATOM     29  H   UNL     1      15.754  17.185  15.378  0.00  0.00    +0.000 HD
ENDBRANCH  27  28
ENDBRANCH  26  27
ENDBRANCH  20  26
ENDBRANCH  19  21
ENDBRANCH  18  19
ENDBRANCH  12  18
ENDBRANCH   2   9
BRANCH   3  30
ATOM     30  CA  UNL     1      11.330   1.013  23.955  0.00  0.00    +0.000 C 
BRANCH  30  34
ATOM     31  S   UNL     1      14.393   0.159  26.390  0.00  0.00    +0.000 S 
ATOM     32  N   UNL     1      12.449   1.820  26.010  0.00  0.00    +0.000 NA
ATOM     33  N   UNL     1      13.785   2.255  27.912  0.00  0.00    +0.000 N 
ATOM     34  C   UNL     1      12.407   0.888  24.992  0.00  0.00    +0.000 A 
ATOM     35  C   UNL     1      13.379  -0.090  25.030  0.00  0.00    +0.000 A 
ATOM     36  C   UNL     1      13.455   1.536  26.806  0.00  0.00    +0.000 A 
ATOM     37  H   UNL     1      12.528   3.205  22.310  0.00  0.00    +0.000 HD
ATOM     38  H   UNL     1      12.528   3.205  22.310  0.00  0.00    +0.000 HD
ENDBRANCH  30  34
BRANCH  30  40
ATOM     39  O   UNL     1       8.546   0.838  23.140  0.00  0.00    +0.000 OA
ATOM     40  N   UNL     1      10.213   1.742  24.498  0.00  0.00    +0.000 N 
ATOM     41  C   UNL     1       8.918   1.586  24.037  0.00  0.00    +0.000 C 
ATOM     42  H   UNL     1      13.134   1.527  21.625  0.00  0.00    +0.000 HD
BRANCH  41  45
ATOM     43  O   UNL     1       6.360   2.631  27.919  0.00  0.00    +0.000 OA
ATOM     44  N   UNL     1       7.400   3.547  24.134  0.00  0.00    +0.000 N 
ATOM     45  C   UNL     1       7.951   2.439  24.752  0.00  0.00    +0.000 A 
ATOM     46  C   UNL     1       7.649   2.075  26.010  0.00  0.00    +0.000 A 
ATOM     47  C   UNL     1       6.497   4.340  24.811  0.00  0.00    +0.000 A 
ATOM     48  C   UNL     1       6.673   2.914  26.769  0.00  0.00    +0.000 A 
ATOM     49  C   UNL     1       6.099   4.104  26.070  0.00  0.00    +0.000 A 
BRANCH  44  50
ATOM     50  O   UNL     1       7.740   3.881  22.830  0.00  0.00    +0.000 OA
ATOM     51  H   UNL     1      11.616   1.151  20.021  0.00  0.00    +0.000 HD
ENDBRANCH  44  50
BRANCH  49  52
ATOM     52  O   UNL     1       5.196   4.907  26.723  0.00  0.00    +0.000 OA
ATOM     53  H   UNL     1      11.616   1.151  20.021  0.00  0.00    +0.000 HD
ENDBRANCH  49  52
ENDBRANCH  41  45
ENDBRANCH  30  40
ENDBRANCH   3  30
TORSDOF 15
ENDMDL
MODEL 8
REMARK minimizedAffinity -7.65494108
REMARK minimizedRMSD -1
REMARK  Name = 163789
REMARK  15 active torsions:
REMARK  status: ('A' for Active; 'I' for Inactive)
REMARK    1  A    between atoms: S_2  and  C_26
REMARK    2  A    between atoms: S_2  and  C_31
REMARK    3  A    between atoms: O_5  and  C_28
REMARK    4  A    between atoms: O_9  and  N_18
REMARK    5  A    between atoms: O_10  and  C_42
REMARK    6  A    between atoms: O_11  and  C_45
REMARK    7  A    between atoms: N_14  and  CA_21
REMARK    8  A    between atoms: N_15  and  CA_29
REMARK    9  A    between atoms: N_17  and  C_40
REMARK   10  A    between atoms: CA_23  and  C_28
REMARK   11  A    between atoms: C_24  and  C_26
REMARK   12  A    between atoms: C_27  and  CA_29
REMARK   13  A    between atoms: CA_29  and  C_30
REMARK   14  A    between atoms: C_33  and  C_37
REMARK   15  A    between atoms: C_40  and  C_42
REMARK                            x       y       z     vdW  Elec       q    Type
REMARK                         _______ _______ _______ _____ _____    ______ ____
ROOT
ATOM      1  O   UNL     1      19.676   4.308  19.054  0.00  0.00    +0.000 OA
ATOM      2  N   UNL     1      18.183   5.542  20.332  0.00  0.00    +0.000 N 
ATOM      3  C   UNL     1      19.062   5.353  19.264  0.00  0.00    +0.000 C 
ATOM      4  H   UNL     1      18.770   5.040  20.915  0.00  0.00    +0.000 HD
ENDROOT
BRANCH   2   9
ATOM      5  S   UNL     1      15.338   4.753  20.092  0.00  0.00    +0.000 S 
ATOM      6  O   UNL     1      18.247   5.571  23.627  0.00  0.00    +0.000 OA
ATOM      7  N   UNL     1      16.294   4.779  22.569  0.00  0.00    +0.000 N 
ATOM      8  C   UNL     1      16.430   4.026  21.335  0.00  0.00    +0.000 C 
ATOM      9  CA  UNL     1      17.899   4.504  21.320  0.00  0.00    +0.000 C 
ATOM     10  C   UNL     1      17.606   5.050  22.745  0.00  0.00    +0.000 C 
ATOM     11  CA  UNL     1      15.106   5.018  23.181  0.00  0.00    +0.000 C 
ATOM     12  C   UNL     1      13.929   4.824  22.539  0.00  0.00    +0.000 C 
ATOM     13  C   UNL     1      13.829   4.426  21.068  0.00  0.00    +0.000 C 
BRANCH  11  15
ATOM     14  OXT UNL     1      15.228   4.878  25.550  0.00  0.00    +0.000 OA
ATOM     15  C   UNL     1      15.155   5.558  24.547  0.00  0.00    +0.000 C 
BRANCH  15  16
ATOM     16  O   UNL     1      15.106   6.904  24.498  0.00  0.00    +0.000 OA
ATOM     17  H   UNL     1      11.759   4.678  21.885  0.00  0.00    +0.000 HD
ENDBRANCH  15  16
ENDBRANCH  11  15
BRANCH  12  18
ATOM     18  C   UNL     1      12.568   4.989  23.174  0.00  0.00    +0.000 C 
BRANCH  18  19
ATOM     19  S   UNL     1      11.982   3.388  23.752  0.00  0.00    +0.000 S 
BRANCH  19  21
ATOM     20  N   UNL     1       7.498   3.847  23.379  0.00  0.00    +0.000 N 
ATOM     21  C   UNL     1      10.204   3.570  23.604  0.00  0.00    +0.000 A 
ATOM     22  C   UNL     1       9.357   2.689  24.268  0.00  0.00    +0.000 A 
ATOM     23  C   UNL     1       9.672   4.593  22.826  0.00  0.00    +0.000 A 
ATOM     24  C   UNL     1       7.985   2.854  24.135  0.00  0.00    +0.000 A 
ATOM     25  C   UNL     1       8.292   4.710  22.730  0.00  0.00    +0.000 A 
BRANCH  20  26
ATOM     26  C   UNL     1       6.050   3.995  23.260  0.00  0.00    +0.000 C 
BRANCH  26  27
ATOM     27  C   UNL     1       5.440   2.696  22.763  0.00  0.00    +0.000 C 
BRANCH  27  28
ATOM     28  O   UNL     1       5.607   2.598  21.355  0.00  0.00    +0.000 OA
ATOM     29  H   UNL     1       9.589  -1.682  18.725  0.00  0.00    +0.000 HD
ENDBRANCH  27  28
ENDBRANCH  26  27
ENDBRANCH  20  26
ENDBRANCH  19  21
ENDBRANCH  18  19
ENDBRANCH  12  18
ENDBRANCH   2   9
BRANCH   3  30
ATOM     30  CA  UNL     1      19.221   6.600  18.404  0.00  0.00    +0.000 C 
BRANCH  30  34
ATOM     31  S   UNL     1      18.836   9.992  20.500  0.00  0.00    +0.000 S 
ATOM     32  N   UNL     1      17.501   8.173  19.238  0.00  0.00    +0.000 NA
ATOM     33  N   UNL     1      16.194   9.893  20.201  0.00  0.00    +0.000 N 
ATOM     34  C   UNL     1      18.839   7.844  19.150  0.00  0.00    +0.000 A 
ATOM     35  C   UNL     1      19.714   8.710  19.773  0.00  0.00    +0.000 A 
ATOM     36  C   UNL     1      17.380   9.286  19.926  0.00  0.00    +0.000 A 
ATOM     37  H   UNL     1      18.982   7.648  15.612  0.00  0.00    +0.000 HD
ATOM     38  H   UNL     1      18.982   7.648  15.612  0.00  0.00    +0.000 HD
ENDBRANCH  30  34
BRANCH  30  40
ATOM     39  O   UNL     1      20.179   7.193  15.725  0.00  0.00    +0.000 OA
ATOM     40  N   UNL     1      20.589   6.694  17.966  0.00  0.00    +0.000 N 
ATOM     41  C   UNL     1      20.943   6.984  16.660  0.00  0.00    +0.000 C 
ATOM     42  H   UNL     1      17.252   4.349  18.400  0.00  0.00    +0.000 HD
BRANCH  41  45
ATOM     43  O   UNL     1      25.091   9.329  16.742  0.00  0.00    +0.000 OA
ATOM     44  N   UNL     1      23.088   5.903  16.033  0.00  0.00    +0.000 N 
ATOM     45  C   UNL     1      22.403   7.027  16.461  0.00  0.00    +0.000 A 
ATOM     46  C   UNL     1      23.006   8.200  16.715  0.00  0.00    +0.000 A 
ATOM     47  C   UNL     1      24.454   5.953  15.850  0.00  0.00    +0.000 A 
ATOM     48  C   UNL     1      24.486   8.285  16.526  0.00  0.00    +0.000 A 
ATOM     49  C   UNL     1      25.193   7.052  16.063  0.00  0.00    +0.000 A 
BRANCH  44  50
ATOM     50  O   UNL     1      22.420   4.713  15.778  0.00  0.00    +0.000 OA
ATOM     51  H   UNL     1      17.042   4.093  16.809  0.00  0.00    +0.000 HD
ENDBRANCH  44  50
BRANCH  49  52
ATOM     52  O   UNL     1      26.553   7.078  15.872  0.00  0.00    +0.000 OA
ATOM     53  H   UNL     1      17.042   4.093  16.809  0.00  0.00    +0.000 HD
ENDBRANCH  49  52
ENDBRANCH  41  45
ENDBRANCH  30  40
ENDBRANCH   3  30
TORSDOF 15
ENDMDL
MODEL 9
REMARK minimizedAffinity -7.60702181
REMARK minimizedRMSD -1
REMARK  Name = 163789
REMARK  15 active torsions:
REMARK  status: ('A' for Active; 'I' for Inactive)
REMARK    1  A    between atoms: S_2  and  C_26
REMARK    2  A    between atoms: S_2  and  C_31
REMARK    3  A    between atoms: O_5  and  C_28
REMARK    4  A    between atoms: O_9  and  N_18
REMARK    5  A    between atoms: O_10  and  C_42
REMARK    6  A    between atoms: O_11  and  C_45
REMARK    7  A    between atoms: N_14  and  CA_21
REMARK    8  A    between atoms: N_15  and  CA_29
REMARK    9  A    between atoms: N_17  and  C_40
REMARK   10  A    between atoms: CA_23  and  C_28
REMARK   11  A    between atoms: C_24  and  C_26
REMARK   12  A    between atoms: C_27  and  CA_29
REMARK   13  A    between atoms: CA_29  and  C_30
REMARK   14  A    between atoms: C_33  and  C_37
REMARK   15  A    between atoms: C_40  and  C_42
REMARK                            x       y       z     vdW  Elec       q    Type
REMARK                         _______ _______ _______ _____ _____    ______ ____
ROOT
ATOM      1  O   UNL     1      18.018   1.971  18.827  0.00  0.00    +0.000 OA
ATOM      2  N   UNL     1      18.578   4.185  19.239  0.00  0.00    +0.000 N 
ATOM      3  C   UNL     1      17.891   2.996  19.495  0.00  0.00    +0.000 C 
ATOM      4  H   UNL     1      18.476   4.049  18.286  0.00  0.00    +0.000 HD
ENDROOT
BRANCH   2   9
ATOM      5  S   UNL     1      20.958   5.643  20.229  0.00  0.00    +0.000 S 
ATOM      6  O   UNL     1      18.379   5.780  16.362  0.00  0.00    +0.000 OA
ATOM      7  N   UNL     1      20.247   6.211  17.734  0.00  0.00    +0.000 N 
ATOM      8  C   UNL     1      20.807   5.117  18.507  0.00  0.00    +0.000 C 
ATOM      9  CA  UNL     1      19.529   4.331  18.140  0.00  0.00    +0.000 C 
ATOM     10  C   UNL     1      19.220   5.522  17.190  0.00  0.00    +0.000 C 
ATOM     11  CA  UNL     1      20.763   7.466  17.719  0.00  0.00    +0.000 C 
ATOM     12  C   UNL     1      21.666   7.871  18.643  0.00  0.00    +0.000 C 
ATOM     13  C   UNL     1      22.102   7.009  19.826  0.00  0.00    +0.000 C 
BRANCH  11  15
ATOM     14  OXT UNL     1      19.290   9.113  16.843  0.00  0.00    +0.000 OA
ATOM     15  C   UNL     1      20.251   8.386  16.693  0.00  0.00    +0.000 C 
BRANCH  15  16
ATOM     16  O   UNL     1      21.009   8.286  15.583  0.00  0.00    +0.000 OA
ATOM     17  H   UNL     1      19.526   4.097  17.384  0.00  0.00    +0.000 HD
ENDBRANCH  15  16
ENDBRANCH  11  15
BRANCH  12  18
ATOM     18  C   UNL     1      22.346   9.220  18.646  0.00  0.00    +0.000 C 
BRANCH  18  19
ATOM     19  S   UNL     1      24.060   9.024  18.130  0.00  0.00    +0.000 S 
BRANCH  19  21
ATOM     20  N   UNL     1      26.304  10.297  21.844  0.00  0.00    +0.000 N 
ATOM     21  C   UNL     1      24.949   9.529  19.603  0.00  0.00    +0.000 A 
ATOM     22  C   UNL     1      24.250   9.952  20.728  0.00  0.00    +0.000 A 
ATOM     23  C   UNL     1      26.340   9.497  19.621  0.00  0.00    +0.000 A 
ATOM     24  C   UNL     1      24.965  10.337  21.854  0.00  0.00    +0.000 A 
ATOM     25  C   UNL     1      27.003   9.893  20.774  0.00  0.00    +0.000 A 
BRANCH  20  26
ATOM     26  C   UNL     1      27.029  10.707  23.044  0.00  0.00    +0.000 C 
BRANCH  26  27
ATOM     27  C   UNL     1      26.229  10.334  24.280  0.00  0.00    +0.000 C 
BRANCH  27  28
ATOM     28  O   UNL     1      26.581   9.023  24.699  0.00  0.00    +0.000 OA
ATOM     29  H   UNL     1      29.866   7.982  30.104  0.00  0.00    +0.000 HD
ENDBRANCH  27  28
ENDBRANCH  26  27
ENDBRANCH  20  26
ENDBRANCH  19  21
ENDBRANCH  18  19
ENDBRANCH  12  18
ENDBRANCH   2   9
BRANCH   3  30
ATOM     30  CA  UNL     1      16.925   3.114  20.666  0.00  0.00    +0.000 C 
BRANCH  30  34
ATOM     31  S   UNL     1      17.701   0.604  23.690  0.00  0.00    +0.000 S 
ATOM     32  N   UNL     1      18.461   2.814  22.584  0.00  0.00    +0.000 NA
ATOM     33  N   UNL     1      19.702   2.163  24.489  0.00  0.00    +0.000 N 
ATOM     34  C   UNL     1      17.393   2.328  21.855  0.00  0.00    +0.000 A 
ATOM     35  C   UNL     1      16.849   1.142  22.302  0.00  0.00    +0.000 A 
ATOM     36  C   UNL     1      18.711   1.987  23.575  0.00  0.00    +0.000 A 
ATOM     37  H   UNL     1      19.031   2.287  18.710  0.00  0.00    +0.000 HD
ATOM     38  H   UNL     1      19.031   2.287  18.710  0.00  0.00    +0.000 HD
ENDBRANCH  30  34
BRANCH  30  40
ATOM     39  O   UNL     1      14.649   4.851  20.168  0.00  0.00    +0.000 OA
ATOM     40  N   UNL     1      16.791   4.503  21.023  0.00  0.00    +0.000 N 
ATOM     41  C   UNL     1      15.659   5.246  20.739  0.00  0.00    +0.000 C 
ATOM     42  H   UNL     1      17.844   1.752  18.167  0.00  0.00    +0.000 HD
BRANCH  41  45
ATOM     43  O   UNL     1      14.249   8.801  23.583  0.00  0.00    +0.000 OA
ATOM     44  N   UNL     1      16.683   7.505  20.641  0.00  0.00    +0.000 N 
ATOM     45  C   UNL     1      15.761   6.641  21.205  0.00  0.00    +0.000 A 
ATOM     46  C   UNL     1      14.919   7.005  22.187  0.00  0.00    +0.000 A 
ATOM     47  C   UNL     1      16.771   8.808  21.084  0.00  0.00    +0.000 A 
ATOM     48  C   UNL     1      14.991   8.412  22.688  0.00  0.00    +0.000 A 
ATOM     49  C   UNL     1      15.999   9.317  22.056  0.00  0.00    +0.000 A 
BRANCH  44  50
ATOM     50  O   UNL     1      17.529   7.084  19.624  0.00  0.00    +0.000 OA
ATOM     51  H   UNL     1      17.691   1.842  17.932  0.00  0.00    +0.000 HD
ENDBRANCH  44  50
BRANCH  49  52
ATOM     52  O   UNL     1      16.104  10.619  22.480  0.00  0.00    +0.000 OA
ATOM     53  H   UNL     1      17.691   1.842  17.932  0.00  0.00    +0.000 HD
ENDBRANCH  49  52
ENDBRANCH  41  45
ENDBRANCH  30  40
ENDBRANCH   3  30
TORSDOF 15
ENDMDL
MODEL 10
REMARK minimizedAffinity -7.51703167
REMARK minimizedRMSD -1
REMARK  Name = 163789
REMARK  15 active torsions:
REMARK  status: ('A' for Active; 'I' for Inactive)
REMARK    1  A    between atoms: S_2  and  C_26
REMARK    2  A    between atoms: S_2  and  C_31
REMARK    3  A    between atoms: O_5  and  C_28
REMARK    4  A    between atoms: O_9  and  N_18
REMARK    5  A    between atoms: O_10  and  C_42
REMARK    6  A    between atoms: O_11  and  C_45
REMARK    7  A    between atoms: N_14  and  CA_21
REMARK    8  A    between atoms: N_15  and  CA_29
REMARK    9  A    between atoms: N_17  and  C_40
REMARK   10  A    between atoms: CA_23  and  C_28
REMARK   11  A    between atoms: C_24  and  C_26
REMARK   12  A    between atoms: C_27  and  CA_29
REMARK   13  A    between atoms: CA_29  and  C_30
REMARK   14  A    between atoms: C_33  and  C_37
REMARK   15  A    between atoms: C_40  and  C_42
REMARK                            x       y       z     vdW  Elec       q    Type
REMARK                         _______ _______ _______ _____ _____    ______ ____
ROOT
ATOM      1  O   UNL     1      15.241   1.333  23.141  0.00  0.00    +0.000 OA
ATOM      2  N   UNL     1      16.906   2.829  22.528  0.00  0.00    +0.000 N 
ATOM      3  C   UNL     1      15.901   2.346  23.368  0.00  0.00    +0.000 C 
ATOM      4  H   UNL     1      16.381   2.593  21.750  0.00  0.00    +0.000 HD
ENDROOT
BRANCH   2   9
ATOM      5  S   UNL     1      19.837   3.068  22.167  0.00  0.00    +0.000 S 
ATOM      6  O   UNL     1      16.128   3.469  19.390  0.00  0.00    +0.000 OA
ATOM      7  N   UNL     1      18.410   3.232  19.934  0.00  0.00    +0.000 N 
ATOM      8  C   UNL     1      18.786   2.257  20.942  0.00  0.00    +0.000 C 
ATOM      9  CA  UNL     1      17.281   2.170  21.279  0.00  0.00    +0.000 C 
ATOM     10  C   UNL     1      17.074   3.049  20.014  0.00  0.00    +0.000 C 
ATOM     11  CA  UNL     1      19.303   3.991  19.247  0.00  0.00    +0.000 C 
ATOM     12  C   UNL     1      20.590   4.106  19.651  0.00  0.00    +0.000 C 
ATOM     13  C   UNL     1      21.124   3.493  20.944  0.00  0.00    +0.000 C 
BRANCH  11  15
ATOM     14  OXT UNL     1      18.817   4.315  16.944  0.00  0.00    +0.000 OA
ATOM     15  C   UNL     1      18.794   4.731  18.084  0.00  0.00    +0.000 C 
BRANCH  15  16
ATOM     16  O   UNL     1      18.309   5.922  18.489  0.00  0.00    +0.000 OA
ATOM     17  H   UNL     1      22.681   4.866  20.148  0.00  0.00    +0.000 HD
ENDBRANCH  15  16
ENDBRANCH  11  15
BRANCH  12  18
ATOM     18  C   UNL     1      21.660   4.862  18.900  0.00  0.00    +0.000 C 
BRANCH  18  19
ATOM     19  S   UNL     1      22.404   6.086  19.991  0.00  0.00    +0.000 S 
BRANCH  19  21
ATOM     20  N   UNL     1      19.566   9.579  19.547  0.00  0.00    +0.000 N 
ATOM     21  C   UNL     1      21.279   7.471  19.816  0.00  0.00    +0.000 A 
ATOM     22  C   UNL     1      20.320   7.718  20.793  0.00  0.00    +0.000 A 
ATOM     23  C   UNL     1      21.364   8.299  18.701  0.00  0.00    +0.000 A 
ATOM     24  C   UNL     1      19.462   8.797  20.630  0.00  0.00    +0.000 A 
ATOM     25  C   UNL     1      20.480   9.364  18.591  0.00  0.00    +0.000 A 
BRANCH  20  26
ATOM     26  C   UNL     1      18.649  10.707  19.404  0.00  0.00    +0.000 C 
BRANCH  26  27
ATOM     27  C   UNL     1      17.573  10.369  18.388  0.00  0.00    +0.000 C 
BRANCH  27  28
ATOM     28  O   UNL     1      16.389   9.967  19.063  0.00  0.00    +0.000 OA
ATOM     29  H   UNL     1      11.114  13.610  19.070  0.00  0.00    +0.000 HD
ENDBRANCH  27  28
ENDBRANCH  26  27
ENDBRANCH  20  26
ENDBRANCH  19  21
ENDBRANCH  18  19
ENDBRANCH  12  18
ENDBRANCH   2   9
BRANCH   3  30
ATOM     30  CA  UNL     1      15.671   3.235  24.583  0.00  0.00    +0.000 C 
BRANCH  30  34
ATOM     31  S   UNL     1      18.203   3.113  27.685  0.00  0.00    +0.000 S 
ATOM     32  N   UNL     1      17.316   1.745  25.678  0.00  0.00    +0.000 NA
ATOM     33  N   UNL     1      18.940   0.649  27.003  0.00  0.00    +0.000 N 
ATOM     34  C   UNL     1      16.672   2.967  25.667  0.00  0.00    +0.000 A 
ATOM     35  C   UNL     1      17.022   3.840  26.676  0.00  0.00    +0.000 A 
ATOM     36  C   UNL     1      18.146   1.710  26.697  0.00  0.00    +0.000 A 
ATOM     37  H   UNL     1      13.366   1.686  25.693  0.00  0.00    +0.000 HD
ATOM     38  H   UNL     1      13.366   1.686  25.693  0.00  0.00    +0.000 HD
ENDBRANCH  30  34
BRANCH  30  40
ATOM     39  O   UNL     1      13.704   4.744  23.067  0.00  0.00    +0.000 OA
ATOM     40  N   UNL     1      15.752   4.614  24.175  0.00  0.00    +0.000 N 
ATOM     41  C   UNL     1      14.756   5.243  23.451  0.00  0.00    +0.000 C 
ATOM     42  H   UNL     1      16.399   0.679  23.213  0.00  0.00    +0.000 HD
BRANCH  41  45
ATOM     43  O   UNL     1      13.549   9.853  23.383  0.00  0.00    +0.000 OA
ATOM     44  N   UNL     1      16.296   7.003  22.619  0.00  0.00    +0.000 N 
ATOM     45  C   UNL     1      15.070   6.654  23.155  0.00  0.00    +0.000 A 
ATOM     46  C   UNL     1      14.109   7.550  23.434  0.00  0.00    +0.000 A 
ATOM     47  C   UNL     1      16.581   8.325  22.347  0.00  0.00    +0.000 A 
ATOM     48  C   UNL     1      14.388   8.991  23.150  0.00  0.00    +0.000 A 
ATOM     49  C   UNL     1      15.723   9.331  22.571  0.00  0.00    +0.000 A 
BRANCH  44  50
ATOM     50  O   UNL     1      17.257   6.039  22.343  0.00  0.00    +0.000 OA
ATOM     51  H   UNL     1      16.567   0.743  23.700  0.00  0.00    +0.000 HD
ENDBRANCH  44  50
BRANCH  49  52
ATOM     52  O   UNL     1      16.029  10.641  22.289  0.00  0.00    +0.000 OA
ATOM     53  H   UNL     1      16.567   0.743  23.700  0.00  0.00    +0.000 HD
ENDBRANCH  49  52
ENDBRANCH  41  45
ENDBRANCH  30  40
ENDBRANCH   3  30
TORSDOF 15
ENDMDL
MODEL 11
REMARK minimizedAffinity -7.49829817
REMARK minimizedRMSD -1
REMARK  Name = 163789
REMARK  15 active torsions:
REMARK  status: ('A' for Active; 'I' for Inactive)
REMARK    1  A    between atoms: S_2  and  C_26
REMARK    2  A    between atoms: S_2  and  C_31
REMARK    3  A    between atoms: O_5  and  C_28
REMARK    4  A    between atoms: O_9  and  N_18
REMARK    5  A    between atoms: O_10  and  C_42
REMARK    6  A    between atoms: O_11  and  C_45
REMARK    7  A    between atoms: N_14  and  CA_21
REMARK    8  A    between atoms: N_15  and  CA_29
REMARK    9  A    between atoms: N_17  and  C_40
REMARK   10  A    between atoms: CA_23  and  C_28
REMARK   11  A    between atoms: C_24  and  C_26
REMARK   12  A    between atoms: C_27  and  CA_29
REMARK   13  A    between atoms: CA_29  and  C_30
REMARK   14  A    between atoms: C_33  and  C_37
REMARK   15  A    between atoms: C_40  and  C_42
REMARK                            x       y       z     vdW  Elec       q    Type
REMARK                         _______ _______ _______ _____ _____    ______ ____
ROOT
ATOM      1  O   UNL     1      16.185   1.572  20.971  0.00  0.00    +0.000 OA
ATOM      2  N   UNL     1      18.335   2.445  20.952  0.00  0.00    +0.000 N 
ATOM      3  C   UNL     1      17.113   2.131  21.552  0.00  0.00    +0.000 C 
ATOM      4  H   UNL     1      17.880   2.688  20.133  0.00  0.00    +0.000 HD
ENDROOT
BRANCH   2   9
ATOM      5  S   UNL     1      21.142   3.206  20.393  0.00  0.00    +0.000 S 
ATOM      6  O   UNL     1      17.101   3.615  18.129  0.00  0.00    +0.000 OA
ATOM      7  N   UNL     1      19.444   3.622  18.395  0.00  0.00    +0.000 N 
ATOM      8  C   UNL     1      20.064   2.523  19.114  0.00  0.00    +0.000 C 
ATOM      9  CA  UNL     1      18.636   2.135  19.557  0.00  0.00    +0.000 C 
ATOM     10  C   UNL     1      18.163   3.222  18.551  0.00  0.00    +0.000 C 
ATOM     11  CA  UNL     1      20.139   4.639  17.824  0.00  0.00    +0.000 C 
ATOM     12  C   UNL     1      21.440   4.863  18.125  0.00  0.00    +0.000 C 
ATOM     13  C   UNL     1      22.204   4.077  19.189  0.00  0.00    +0.000 C 
BRANCH  11  15
ATOM     14  OXT UNL     1      18.709   6.456  17.273  0.00  0.00    +0.000 OA
ATOM     15  C   UNL     1      19.399   5.524  16.912  0.00  0.00    +0.000 C 
BRANCH  15  16
ATOM     16  O   UNL     1      19.609   5.133  15.640  0.00  0.00    +0.000 OA
ATOM     17  H   UNL     1      18.370   1.607  18.643  0.00  0.00    +0.000 HD
ENDBRANCH  15  16
ENDBRANCH  11  15
BRANCH  12  18
ATOM     18  C   UNL     1      22.302   5.918  17.474  0.00  0.00    +0.000 C 
BRANCH  18  19
ATOM     19  S   UNL     1      22.965   7.012  18.742  0.00  0.00    +0.000 S 
BRANCH  19  21
ATOM     20  N   UNL     1      19.616  10.013  19.230  0.00  0.00    +0.000 N 
ATOM     21  C   UNL     1      21.637   8.201  18.935  0.00  0.00    +0.000 A 
ATOM     22  C   UNL     1      21.040   8.767  17.813  0.00  0.00    +0.000 A 
ATOM     23  C   UNL     1      21.204   8.560  20.207  0.00  0.00    +0.000 A 
ATOM     24  C   UNL     1      20.014   9.685  17.993  0.00  0.00    +0.000 A 
ATOM     25  C   UNL     1      20.174   9.483  20.327  0.00  0.00    +0.000 A 
BRANCH  20  26
ATOM     26  C   UNL     1      18.535  10.981  19.387  0.00  0.00    +0.000 C 
BRANCH  26  27
ATOM     27  C   UNL     1      17.235  10.387  18.873  0.00  0.00    +0.000 C 
BRANCH  27  28
ATOM     28  O   UNL     1      17.056  10.740  17.509  0.00  0.00    +0.000 OA
ATOM     29  H   UNL     1      17.484   6.388  12.821  0.00  0.00    +0.000 HD
ENDBRANCH  27  28
ENDBRANCH  26  27
ENDBRANCH  20  26
ENDBRANCH  19  21
ENDBRANCH  18  19
ENDBRANCH  12  18
ENDBRANCH   2   9
BRANCH   3  30
ATOM     30  CA  UNL     1      17.031   2.598  23.000  0.00  0.00    +0.000 C 
BRANCH  30  34
ATOM     31  S   UNL     1      20.144   1.336  25.181  0.00  0.00    +0.000 S 
ATOM     32  N   UNL     1      19.322   3.260  23.663  0.00  0.00    +0.000 NA
ATOM     33  N   UNL     1      21.512   3.520  24.517  0.00  0.00    +0.000 N 
ATOM     34  C   UNL     1      18.305   2.330  23.745  0.00  0.00    +0.000 A 
ATOM     35  C   UNL     1      18.565   1.221  24.522  0.00  0.00    +0.000 A 
ATOM     36  C   UNL     1      20.341   2.842  24.380  0.00  0.00    +0.000 A 
ATOM     37  H   UNL     1      17.932   1.823  20.255  0.00  0.00    +0.000 HD
ATOM     38  H   UNL     1      17.932   1.823  20.255  0.00  0.00    +0.000 HD
ENDBRANCH  30  34
BRANCH  30  40
ATOM     39  O   UNL     1      14.426   3.869  22.800  0.00  0.00    +0.000 OA
ATOM     40  N   UNL     1      16.743   4.009  23.019  0.00  0.00    +0.000 N 
ATOM     41  C   UNL     1      15.460   4.516  22.917  0.00  0.00    +0.000 C 
ATOM     42  H   UNL     1      17.491   0.664  20.765  0.00  0.00    +0.000 HD
BRANCH  41  45
ATOM     43  O   UNL     1      17.377   8.765  21.924  0.00  0.00    +0.000 OA
ATOM     44  N   UNL     1      14.366   6.647  23.567  0.00  0.00    +0.000 N 
ATOM     45  C   UNL     1      15.423   5.990  22.964  0.00  0.00    +0.000 A 
ATOM     46  C   UNL     1      16.459   6.631  22.398  0.00  0.00    +0.000 A 
ATOM     47  C   UNL     1      14.339   8.025  23.606  0.00  0.00    +0.000 A 
ATOM     48  C   UNL     1      16.459   8.125  22.424  0.00  0.00    +0.000 A 
ATOM     49  C   UNL     1      15.301   8.802  23.084  0.00  0.00    +0.000 A 
BRANCH  44  50
ATOM     50  O   UNL     1      13.319   5.940  24.143  0.00  0.00    +0.000 OA
ATOM     51  H   UNL     1      12.943   0.454  23.786  0.00  0.00    +0.000 HD
ENDBRANCH  44  50
BRANCH  49  52
ATOM     52  O   UNL     1      15.253  10.174  23.136  0.00  0.00    +0.000 OA
ATOM     53  H   UNL     1      12.943   0.454  23.786  0.00  0.00    +0.000 HD
ENDBRANCH  49  52
ENDBRANCH  41  45
ENDBRANCH  30  40
ENDBRANCH   3  30
TORSDOF 15
ENDMDL
MODEL 12
REMARK minimizedAffinity -7.48912859
REMARK minimizedRMSD -1
REMARK  Name = 163789
REMARK  15 active torsions:
REMARK  status: ('A' for Active; 'I' for Inactive)
REMARK    1  A    between atoms: S_2  and  C_26
REMARK    2  A    between atoms: S_2  and  C_31
REMARK    3  A    between atoms: O_5  and  C_28
REMARK    4  A    between atoms: O_9  and  N_18
REMARK    5  A    between atoms: O_10  and  C_42
REMARK    6  A    between atoms: O_11  and  C_45
REMARK    7  A    between atoms: N_14  and  CA_21
REMARK    8  A    between atoms: N_15  and  CA_29
REMARK    9  A    between atoms: N_17  and  C_40
REMARK   10  A    between atoms: CA_23  and  C_28
REMARK   11  A    between atoms: C_24  and  C_26
REMARK   12  A    between atoms: C_27  and  CA_29
REMARK   13  A    between atoms: CA_29  and  C_30
REMARK   14  A    between atoms: C_33  and  C_37
REMARK   15  A    between atoms: C_40  and  C_42
REMARK                            x       y       z     vdW  Elec       q    Type
REMARK                         _______ _______ _______ _____ _____    ______ ____
ROOT
ATOM      1  O   UNL     1      15.088   3.263  26.043  0.00  0.00    +0.000 OA
ATOM      2  N   UNL     1      15.970   4.040  24.043  0.00  0.00    +0.000 N 
ATOM      3  C   UNL     1      16.038   3.381  25.272  0.00  0.00    +0.000 C 
ATOM      4  H   UNL     1      15.397   4.718  24.428  0.00  0.00    +0.000 HD
ENDROOT
BRANCH   2   9
ATOM      5  S   UNL     1      16.516   5.201  21.373  0.00  0.00    +0.000 S 
ATOM      6  O   UNL     1      14.186   6.578  25.155  0.00  0.00    +0.000 OA
ATOM      7  N   UNL     1      14.854   6.606  22.894  0.00  0.00    +0.000 N 
ATOM      8  C   UNL     1      14.900   5.349  22.168  0.00  0.00    +0.000 C 
ATOM      9  CA  UNL     1      14.747   4.662  23.543  0.00  0.00    +0.000 C 
ATOM     10  C   UNL     1      14.496   6.095  24.092  0.00  0.00    +0.000 C 
ATOM     11  CA  UNL     1      15.130   7.812  22.334  0.00  0.00    +0.000 C 
ATOM     12  C   UNL     1      15.750   7.909  21.134  0.00  0.00    +0.000 C 
ATOM     13  C   UNL     1      16.279   6.702  20.361  0.00  0.00    +0.000 C 
BRANCH  11  15
ATOM     14  OXT UNL     1      13.683   9.518  23.137  0.00  0.00    +0.000 OA
ATOM     15  C   UNL     1      14.784   9.006  23.118  0.00  0.00    +0.000 C 
BRANCH  15  16
ATOM     16  O   UNL     1      15.871   9.428  23.795  0.00  0.00    +0.000 OA
ATOM     17  H   UNL     1      16.616   8.566  19.138  0.00  0.00    +0.000 HD
ENDBRANCH  15  16
ENDBRANCH  11  15
BRANCH  12  18
ATOM     18  C   UNL     1      16.019   9.207  20.410  0.00  0.00    +0.000 C 
BRANCH  18  19
ATOM     19  S   UNL     1      17.656   9.810  20.854  0.00  0.00    +0.000 S 
BRANCH  19  21
ATOM     20  N   UNL     1      20.190   8.219  17.462  0.00  0.00    +0.000 N 
ATOM     21  C   UNL     1      18.660   9.179  19.509  0.00  0.00    +0.000 A 
ATOM     22  C   UNL     1      19.486   8.078  19.714  0.00  0.00    +0.000 A 
ATOM     23  C   UNL     1      18.615   9.790  18.260  0.00  0.00    +0.000 A 
ATOM     24  C   UNL     1      20.252   7.611  18.654  0.00  0.00    +0.000 A 
ATOM     25  C   UNL     1      19.403   9.281  17.237  0.00  0.00    +0.000 A 
BRANCH  20  26
ATOM     26  C   UNL     1      21.007   7.704  16.366  0.00  0.00    +0.000 C 
BRANCH  26  27
ATOM     27  C   UNL     1      20.680   6.242  16.125  0.00  0.00    +0.000 C 
BRANCH  27  28
ATOM     28  O   UNL     1      19.319   6.114  15.738  0.00  0.00    +0.000 OA
ATOM     29  H   UNL     1      17.650   4.438   9.780  0.00  0.00    +0.000 HD
ENDBRANCH  27  28
ENDBRANCH  26  27
ENDBRANCH  20  26
ENDBRANCH  19  21
ENDBRANCH  18  19
ENDBRANCH  12  18
ENDBRANCH   2   9
BRANCH   3  30
ATOM     30  CA  UNL     1      17.435   2.858  25.584  0.00  0.00    +0.000 C 
BRANCH  30  34
ATOM     31  S   UNL     1      19.742   2.444  22.336  0.00  0.00    +0.000 S 
ATOM     32  N   UNL     1      18.882   4.167  24.061  0.00  0.00    +0.000 NA
ATOM     33  N   UNL     1      20.325   5.039  22.402  0.00  0.00    +0.000 N 
ATOM     34  C   UNL     1      18.339   2.940  24.390  0.00  0.00    +0.000 A 
ATOM     35  C   UNL     1      18.691   1.887  23.572  0.00  0.00    +0.000 A 
ATOM     36  C   UNL     1      19.639   4.025  22.996  0.00  0.00    +0.000 A 
ATOM     37  H   UNL     1      14.947   3.973  24.353  0.00  0.00    +0.000 HD
ATOM     38  H   UNL     1      14.947   3.973  24.353  0.00  0.00    +0.000 HD
ENDBRANCH  30  34
BRANCH  30  40
ATOM     39  O   UNL     1      19.376   1.976  27.558  0.00  0.00    +0.000 OA
ATOM     40  N   UNL     1      17.989   3.626  26.669  0.00  0.00    +0.000 N 
ATOM     41  C   UNL     1      18.913   3.111  27.560  0.00  0.00    +0.000 C 
ATOM     42  H   UNL     1      15.102   0.994  25.417  0.00  0.00    +0.000 HD
BRANCH  41  45
ATOM     43  O   UNL     1      21.655   6.745  28.967  0.00  0.00    +0.000 OA
ATOM     44  N   UNL     1      18.726   4.112  29.824  0.00  0.00    +0.000 N 
ATOM     45  C   UNL     1      19.331   4.091  28.580  0.00  0.00    +0.000 A 
ATOM     46  C   UNL     1      20.312   4.938  28.227  0.00  0.00    +0.000 A 
ATOM     47  C   UNL     1      19.123   5.032  30.771  0.00  0.00    +0.000 A 
ATOM     48  C   UNL     1      20.764   5.947  29.232  0.00  0.00    +0.000 A 
ATOM     49  C   UNL     1      20.089   5.940  30.566  0.00  0.00    +0.000 A 
BRANCH  44  50
ATOM     50  O   UNL     1      17.718   3.212  30.144  0.00  0.00    +0.000 OA
ATOM     51  H   UNL     1      15.642  -0.302  26.441  0.00  0.00    +0.000 HD
ENDBRANCH  44  50
BRANCH  49  52
ATOM     52  O   UNL     1      20.468   6.847  31.526  0.00  0.00    +0.000 OA
ATOM     53  H   UNL     1      15.642  -0.302  26.441  0.00  0.00    +0.000 HD
ENDBRANCH  49  52
ENDBRANCH  41  45
ENDBRANCH  30  40
ENDBRANCH   3  30
TORSDOF 15
ENDMDL
MODEL 13
REMARK minimizedAffinity -7.47288895
REMARK minimizedRMSD -1
REMARK  Name = 163789
REMARK  15 active torsions:
REMARK  status: ('A' for Active; 'I' for Inactive)
REMARK    1  A    between atoms: S_2  and  C_26
REMARK    2  A    between atoms: S_2  and  C_31
REMARK    3  A    between atoms: O_5  and  C_28
REMARK    4  A    between atoms: O_9  and  N_18
REMARK    5  A    between atoms: O_10  and  C_42
REMARK    6  A    between atoms: O_11  and  C_45
REMARK    7  A    between atoms: N_14  and  CA_21
REMARK    8  A    between atoms: N_15  and  CA_29
REMARK    9  A    between atoms: N_17  and  C_40
REMARK   10  A    between atoms: CA_23  and  C_28
REMARK   11  A    between atoms: C_24  and  C_26
REMARK   12  A    between atoms: C_27  and  CA_29
REMARK   13  A    between atoms: CA_29  and  C_30
REMARK   14  A    between atoms: C_33  and  C_37
REMARK   15  A    between atoms: C_40  and  C_42
REMARK                            x       y       z     vdW  Elec       q    Type
REMARK                         _______ _______ _______ _____ _____    ______ ____
ROOT
ATOM      1  O   UNL     1      17.034   1.024  25.978  0.00  0.00    +0.000 OA
ATOM      2  N   UNL     1      17.754   2.732  24.584  0.00  0.00    +0.000 N 
ATOM      3  C   UNL     1      17.193   2.223  25.757  0.00  0.00    +0.000 C 
ATOM      4  H   UNL     1      17.293   2.061  24.061  0.00  0.00    +0.000 HD
ENDROOT
BRANCH   2   9
ATOM      5  S   UNL     1      20.492   3.564  23.820  0.00  0.00    +0.000 S 
ATOM      6  O   UNL     1      16.653   2.330  21.503  0.00  0.00    +0.000 OA
ATOM      7  N   UNL     1      18.945   2.796  21.803  0.00  0.00    +0.000 N 
ATOM      8  C   UNL     1      19.622   2.235  22.959  0.00  0.00    +0.000 C 
ATOM      9  CA  UNL     1      18.215   1.881  23.489  0.00  0.00    +0.000 C 
ATOM     10  C   UNL     1      17.711   2.326  22.087  0.00  0.00    +0.000 C 
ATOM     11  CA  UNL     1      19.566   3.541  20.853  0.00  0.00    +0.000 C 
ATOM     12  C   UNL     1      20.799   4.062  21.057  0.00  0.00    +0.000 C 
ATOM     13  C   UNL     1      21.550   3.952  22.382  0.00  0.00    +0.000 C 
BRANCH  11  15
ATOM     14  OXT UNL     1      18.159   4.814  19.421  0.00  0.00    +0.000 OA
ATOM     15  C   UNL     1      18.813   3.810  19.619  0.00  0.00    +0.000 C 
BRANCH  15  16
ATOM     16  O   UNL     1      18.968   2.777  18.767  0.00  0.00    +0.000 OA
ATOM     17  H   UNL     1      17.759   1.527  23.235  0.00  0.00    +0.000 HD
ENDBRANCH  15  16
ENDBRANCH  11  15
BRANCH  12  18
ATOM     18  C   UNL     1      21.588   4.830  20.023  0.00  0.00    +0.000 C 
BRANCH  18  19
ATOM     19  S   UNL     1      22.032   6.443  20.688  0.00  0.00    +0.000 S 
BRANCH  19  21
ATOM     20  N   UNL     1      18.265   8.831  19.941  0.00  0.00    +0.000 N 
ATOM     21  C   UNL     1      20.539   7.390  20.392  0.00  0.00    +0.000 A 
ATOM     22  C   UNL     1      19.554   7.462  21.372  0.00  0.00    +0.000 A 
ATOM     23  C   UNL     1      20.364   8.053  19.182  0.00  0.00    +0.000 A 
ATOM     24  C   UNL     1      18.408   8.202  21.115  0.00  0.00    +0.000 A 
ATOM     25  C   UNL     1      19.198   8.779  18.980  0.00  0.00    +0.000 A 
BRANCH  20  26
ATOM     26  C   UNL     1      17.049   9.603  19.700  0.00  0.00    +0.000 C 
BRANCH  26  27
ATOM     27  C   UNL     1      17.390  10.877  18.947  0.00  0.00    +0.000 C 
BRANCH  27  28
ATOM     28  O   UNL     1      16.995  10.748  17.588  0.00  0.00    +0.000 OA
ATOM     29  H   UNL     1      12.104  14.111  15.167  0.00  0.00    +0.000 HD
ENDBRANCH  27  28
ENDBRANCH  26  27
ENDBRANCH  20  26
ENDBRANCH  19  21
ENDBRANCH  18  19
ENDBRANCH  12  18
ENDBRANCH   2   9
BRANCH   3  30
ATOM     30  CA  UNL     1      16.752   3.315  26.722  0.00  0.00    +0.000 C 
BRANCH  30  34
ATOM     31  S   UNL     1      19.322   3.848  29.748  0.00  0.00    +0.000 S 
ATOM     32  N   UNL     1      18.830   4.527  27.303  0.00  0.00    +0.000 NA
ATOM     33  N   UNL     1      20.773   5.494  28.244  0.00  0.00    +0.000 N 
ATOM     34  C   UNL     1      17.833   3.660  27.704  0.00  0.00    +0.000 A 
ATOM     35  C   UNL     1      17.929   3.187  28.995  0.00  0.00    +0.000 A 
ATOM     36  C   UNL     1      19.671   4.699  28.299  0.00  0.00    +0.000 A 
ATOM     37  H   UNL     1      18.249   1.317  25.074  0.00  0.00    +0.000 HD
ATOM     38  H   UNL     1      18.249   1.317  25.074  0.00  0.00    +0.000 HD
ENDBRANCH  30  34
BRANCH  30  40
ATOM     39  O   UNL     1      14.498   3.615  24.913  0.00  0.00    +0.000 OA
ATOM     40  N   UNL     1      16.387   4.486  25.967  0.00  0.00    +0.000 N 
ATOM     41  C   UNL     1      15.288   4.527  25.128  0.00  0.00    +0.000 C 
ATOM     42  H   UNL     1      18.399   0.912  26.047  0.00  0.00    +0.000 HD
BRANCH  41  45
ATOM     43  O   UNL     1      12.848   8.561  24.431  0.00  0.00    +0.000 OA
ATOM     44  N   UNL     1      16.058   6.284  23.554  0.00  0.00    +0.000 N 
ATOM     45  C   UNL     1      15.122   5.835  24.469  0.00  0.00    +0.000 A 
ATOM     46  C   UNL     1      14.030   6.540  24.807  0.00  0.00    +0.000 A 
ATOM     47  C   UNL     1      15.895   7.509  22.942  0.00  0.00    +0.000 A 
ATOM     48  C   UNL     1      13.826   7.873  24.161  0.00  0.00    +0.000 A 
ATOM     49  C   UNL     1      14.856   8.326  23.178  0.00  0.00    +0.000 A 
BRANCH  44  50
ATOM     50  O   UNL     1      17.169   5.517  23.232  0.00  0.00    +0.000 OA
ATOM     51  H   UNL     1      18.301   0.778  25.807  0.00  0.00    +0.000 HD
ENDBRANCH  44  50
BRANCH  49  52
ATOM     52  O   UNL     1      14.715   9.541  22.554  0.00  0.00    +0.000 OA
ATOM     53  H   UNL     1      18.301   0.778  25.807  0.00  0.00    +0.000 HD
ENDBRANCH  49  52
ENDBRANCH  41  45
ENDBRANCH  30  40
ENDBRANCH   3  30
TORSDOF 15
ENDMDL
MODEL 14
REMARK minimizedAffinity -7.43680239
REMARK minimizedRMSD -1
REMARK  Name = 163789
REMARK  15 active torsions:
REMARK  status: ('A' for Active; 'I' for Inactive)
REMARK    1  A    between atoms: S_2  and  C_26
REMARK    2  A    between atoms: S_2  and  C_31
REMARK    3  A    between atoms: O_5  and  C_28
REMARK    4  A    between atoms: O_9  and  N_18
REMARK    5  A    between atoms: O_10  and  C_42
REMARK    6  A    between atoms: O_11  and  C_45
REMARK    7  A    between atoms: N_14  and  CA_21
REMARK    8  A    between atoms: N_15  and  CA_29
REMARK    9  A    between atoms: N_17  and  C_40
REMARK   10  A    between atoms: CA_23  and  C_28
REMARK   11  A    between atoms: C_24  and  C_26
REMARK   12  A    between atoms: C_27  and  CA_29
REMARK   13  A    between atoms: CA_29  and  C_30
REMARK   14  A    between atoms: C_33  and  C_37
REMARK   15  A    between atoms: C_40  and  C_42
REMARK                            x       y       z     vdW  Elec       q    Type
REMARK                         _______ _______ _______ _____ _____    ______ ____
ROOT
ATOM      1  O   UNL     1      17.898   1.705  19.866  0.00  0.00    +0.000 OA
ATOM      2  N   UNL     1      18.186   4.006  19.788  0.00  0.00    +0.000 N 
ATOM      3  C   UNL     1      17.537   2.836  20.188  0.00  0.00    +0.000 C 
ATOM      4  H   UNL     1      18.341   3.630  18.909  0.00  0.00    +0.000 HD
ENDROOT
BRANCH   2   9
ATOM      5  S   UNL     1      20.210   5.811  20.979  0.00  0.00    +0.000 S 
ATOM      6  O   UNL     1      18.660   4.978  16.675  0.00  0.00    +0.000 OA
ATOM      7  N   UNL     1      20.121   5.815  18.326  0.00  0.00    +0.000 N 
ATOM      8  C   UNL     1      20.502   4.943  19.422  0.00  0.00    +0.000 C 
ATOM      9  CA  UNL     1      19.375   4.004  18.939  0.00  0.00    +0.000 C 
ATOM     10  C   UNL     1      19.278   4.955  17.713  0.00  0.00    +0.000 C 
ATOM     11  CA  UNL     1      20.592   7.079  18.167  0.00  0.00    +0.000 C 
ATOM     12  C   UNL     1      21.228   7.727  19.172  0.00  0.00    +0.000 C 
ATOM     13  C   UNL     1      21.382   7.153  20.579  0.00  0.00    +0.000 C 
BRANCH  11  15
ATOM     14  OXT UNL     1      21.058   7.671  15.913  0.00  0.00    +0.000 OA
ATOM     15  C   UNL     1      20.324   7.734  16.879  0.00  0.00    +0.000 C 
BRANCH  15  16
ATOM     16  O   UNL     1      19.155   8.400  16.950  0.00  0.00    +0.000 OA
ATOM     17  H   UNL     1      22.167   9.240  20.584  0.00  0.00    +0.000 HD
ENDBRANCH  15  16
ENDBRANCH  11  15
BRANCH  12  18
ATOM     18  C   UNL     1      21.851   9.098  19.049  0.00  0.00    +0.000 C 
BRANCH  18  19
ATOM     19  S   UNL     1      23.342   9.167  20.055  0.00  0.00    +0.000 S 
BRANCH  19  21
ATOM     20  N   UNL     1      26.502   7.774  17.134  0.00  0.00    +0.000 N 
ATOM     21  C   UNL     1      24.595   8.615  18.897  0.00  0.00    +0.000 A 
ATOM     22  C   UNL     1      24.294   8.510  17.542  0.00  0.00    +0.000 A 
ATOM     23  C   UNL     1      25.869   8.290  19.352  0.00  0.00    +0.000 A 
ATOM     24  C   UNL     1      25.284   8.080  16.669  0.00  0.00    +0.000 A 
ATOM     25  C   UNL     1      26.819   7.865  18.433  0.00  0.00    +0.000 A 
BRANCH  20  26
ATOM     26  C   UNL     1      27.523   7.325  16.191  0.00  0.00    +0.000 C 
BRANCH  26  27
ATOM     27  C   UNL     1      28.523   8.441  15.947  0.00  0.00    +0.000 C 
BRANCH  27  28
ATOM     28  O   UNL     1      28.057   9.279  14.899  0.00  0.00    +0.000 OA
ATOM     29  H   UNL     1      26.075  15.274  16.005  0.00  0.00    +0.000 HD
ENDBRANCH  27  28
ENDBRANCH  26  27
ENDBRANCH  20  26
ENDBRANCH  19  21
ENDBRANCH  18  19
ENDBRANCH  12  18
ENDBRANCH   2   9
BRANCH   3  30
ATOM     30  CA  UNL     1      16.298   3.107  21.031  0.00  0.00    +0.000 C 
BRANCH  30  34
ATOM     31  S   UNL     1      15.934   0.566  24.106  0.00  0.00    +0.000 S 
ATOM     32  N   UNL     1      17.022   2.796  23.377  0.00  0.00    +0.000 NA
ATOM     33  N   UNL     1      17.481   2.132  25.601  0.00  0.00    +0.000 N 
ATOM     34  C   UNL     1      16.304   2.310  22.302  0.00  0.00    +0.000 A 
ATOM     35  C   UNL     1      15.648   1.115  22.506  0.00  0.00    +0.000 A 
ATOM     36  C   UNL     1      16.899   1.959  24.384  0.00  0.00    +0.000 A 
ATOM     37  H   UNL     1      18.987   2.321  19.983  0.00  0.00    +0.000 HD
ATOM     38  H   UNL     1      18.987   2.321  19.983  0.00  0.00    +0.000 HD
ENDBRANCH  30  34
BRANCH  30  40
ATOM     39  O   UNL     1      13.990   4.861  20.843  0.00  0.00    +0.000 OA
ATOM     40  N   UNL     1      16.241   4.513  21.337  0.00  0.00    +0.000 N 
ATOM     41  C   UNL     1      15.086   5.264  21.214  0.00  0.00    +0.000 C 
ATOM     42  H   UNL     1      16.764   1.616  18.481  0.00  0.00    +0.000 HD
BRANCH  41  45
ATOM     43  O   UNL     1      13.920   9.081  23.818  0.00  0.00    +0.000 OA
ATOM     44  N   UNL     1      16.256   7.439  20.971  0.00  0.00    +0.000 N 
ATOM     45  C   UNL     1      15.280   6.677  21.589  0.00  0.00    +0.000 A 
ATOM     46  C   UNL     1      14.467   7.158  22.543  0.00  0.00    +0.000 A 
ATOM     47  C   UNL     1      16.431   8.760  21.328  0.00  0.00    +0.000 A 
ATOM     48  C   UNL     1      14.633   8.587  22.952  0.00  0.00    +0.000 A 
ATOM     49  C   UNL     1      15.696   9.380  22.264  0.00  0.00    +0.000 A 
BRANCH  44  50
ATOM     50  O   UNL     1      17.069   6.898  19.985  0.00  0.00    +0.000 OA
ATOM     51  H   UNL     1      16.882   1.558  18.639  0.00  0.00    +0.000 HD
ENDBRANCH  44  50
BRANCH  49  52
ATOM     52  O   UNL     1      15.888  10.698  22.601  0.00  0.00    +0.000 OA
ATOM     53  H   UNL     1      16.882   1.558  18.639  0.00  0.00    +0.000 HD
ENDBRANCH  49  52
ENDBRANCH  41  45
ENDBRANCH  30  40
ENDBRANCH   3  30
TORSDOF 15
ENDMDL
MODEL 15
REMARK minimizedAffinity -7.36860847
REMARK minimizedRMSD -1
REMARK  Name = 163789
REMARK  15 active torsions:
REMARK  status: ('A' for Active; 'I' for Inactive)
REMARK    1  A    between atoms: S_2  and  C_26
REMARK    2  A    between atoms: S_2  and  C_31
REMARK    3  A    between atoms: O_5  and  C_28
REMARK    4  A    between atoms: O_9  and  N_18
REMARK    5  A    between atoms: O_10  and  C_42
REMARK    6  A    between atoms: O_11  and  C_45
REMARK    7  A    between atoms: N_14  and  CA_21
REMARK    8  A    between atoms: N_15  and  CA_29
REMARK    9  A    between atoms: N_17  and  C_40
REMARK   10  A    between atoms: CA_23  and  C_28
REMARK   11  A    between atoms: C_24  and  C_26
REMARK   12  A    between atoms: C_27  and  CA_29
REMARK   13  A    between atoms: CA_29  and  C_30
REMARK   14  A    between atoms: C_33  and  C_37
REMARK   15  A    between atoms: C_40  and  C_42
REMARK                            x       y       z     vdW  Elec       q    Type
REMARK                         _______ _______ _______ _____ _____    ______ ____
ROOT
ATOM      1  O   UNL     1      23.348   8.731  17.784  0.00  0.00    +0.000 OA
ATOM      2  N   UNL     1      21.191   8.047  18.299  0.00  0.00    +0.000 N 
ATOM      3  C   UNL     1      22.413   7.947  17.631  0.00  0.00    +0.000 C 
ATOM      4  H   UNL     1      21.213   9.011  18.211  0.00  0.00    +0.000 HD
ENDROOT
BRANCH   2   9
ATOM      5  S   UNL     1      20.243   6.811  20.818  0.00  0.00    +0.000 S 
ATOM      6  O   UNL     1      18.974  10.486  18.267  0.00  0.00    +0.000 OA
ATOM      7  N   UNL     1      19.057   9.096  20.170  0.00  0.00    +0.000 N 
ATOM      8  C   UNL     1      20.349   8.603  20.613  0.00  0.00    +0.000 C 
ATOM      9  CA  UNL     1      20.897   9.107  19.260  0.00  0.00    +0.000 C 
ATOM     10  C   UNL     1      19.497   9.757  19.076  0.00  0.00    +0.000 C 
ATOM     11  CA  UNL     1      17.889   8.841  20.814  0.00  0.00    +0.000 C 
ATOM     12  C   UNL     1      17.798   7.870  21.754  0.00  0.00    +0.000 C 
ATOM     13  C   UNL     1      18.946   6.923  22.098  0.00  0.00    +0.000 C 
BRANCH  11  15
ATOM     14  OXT UNL     1      16.393  10.686  20.887  0.00  0.00    +0.000 OA
ATOM     15  C   UNL     1      16.715   9.621  20.399  0.00  0.00    +0.000 C 
BRANCH  15  16
ATOM     16  O   UNL     1      16.071   8.970  19.411  0.00  0.00    +0.000 OA
ATOM     17  H   UNL     1      17.137   6.273  23.229  0.00  0.00    +0.000 HD
ENDBRANCH  15  16
ENDBRANCH  11  15
BRANCH  12  18
ATOM     18  C   UNL     1      16.561   7.580  22.570  0.00  0.00    +0.000 C 
BRANCH  18  19
ATOM     19  S   UNL     1      16.772   6.016  23.437  0.00  0.00    +0.000 S 
BRANCH  19  21
ATOM     20  N   UNL     1      12.604   4.270  23.235  0.00  0.00    +0.000 N 
ATOM     21  C   UNL     1      15.120   5.324  23.357  0.00  0.00    +0.000 A 
ATOM     22  C   UNL     1      14.705   4.398  24.310  0.00  0.00    +0.000 A 
ATOM     23  C   UNL     1      14.250   5.712  22.343  0.00  0.00    +0.000 A 
ATOM     24  C   UNL     1      13.421   3.879  24.223  0.00  0.00    +0.000 A 
ATOM     25  C   UNL     1      12.977   5.160  22.305  0.00  0.00    +0.000 A 
BRANCH  20  26
ATOM     26  C   UNL     1      11.258   3.707  23.171  0.00  0.00    +0.000 C 
BRANCH  26  27
ATOM     27  C   UNL     1      11.269   2.449  22.320  0.00  0.00    +0.000 C 
BRANCH  27  28
ATOM     28  O   UNL     1      10.085   2.393  21.537  0.00  0.00    +0.000 OA
ATOM     29  H   UNL     1      10.212   3.170  15.175  0.00  0.00    +0.000 HD
ENDBRANCH  27  28
ENDBRANCH  26  27
ENDBRANCH  20  26
ENDBRANCH  19  21
ENDBRANCH  18  19
ENDBRANCH  12  18
ENDBRANCH   2   9
BRANCH   3  30
ATOM     30  CA  UNL     1      22.455   6.783  16.649  0.00  0.00    +0.000 C 
BRANCH  30  34
ATOM     31  S   UNL     1      26.150   5.441  15.881  0.00  0.00    +0.000 S 
ATOM     32  N   UNL     1      24.233   5.358  17.614  0.00  0.00    +0.000 NA
ATOM     33  N   UNL     1      26.154   4.098  18.178  0.00  0.00    +0.000 N 
ATOM     34  C   UNL     1      23.820   6.166  16.574  0.00  0.00    +0.000 A 
ATOM     35  C   UNL     1      24.722   6.330  15.544  0.00  0.00    +0.000 A 
ATOM     36  C   UNL     1      25.446   4.919  17.358  0.00  0.00    +0.000 A 
ATOM     37  H   UNL     1      23.062   9.014  18.546  0.00  0.00    +0.000 HD
ATOM     38  H   UNL     1      23.062   9.014  18.546  0.00  0.00    +0.000 HD
ENDBRANCH  30  34
BRANCH  30  40
ATOM     39  O   UNL     1      20.061   5.951  15.228  0.00  0.00    +0.000 OA
ATOM     40  N   UNL     1      21.494   5.792  17.060  0.00  0.00    +0.000 N 
ATOM     41  C   UNL     1      20.380   5.467  16.307  0.00  0.00    +0.000 C 
ATOM     42  H   UNL     1      22.562   9.752  16.991  0.00  0.00    +0.000 HD
BRANCH  41  45
ATOM     43  O   UNL     1      19.146   0.897  16.862  0.00  0.00    +0.000 OA
ATOM     44  N   UNL     1      18.583   4.761  17.866  0.00  0.00    +0.000 N 
ATOM     45  C   UNL     1      19.550   4.423  16.937  0.00  0.00    +0.000 A 
ATOM     46  C   UNL     1      19.791   3.158  16.555  0.00  0.00    +0.000 A 
ATOM     47  C   UNL     1      17.812   3.778  18.450  0.00  0.00    +0.000 A 
ATOM     48  C   UNL     1      18.971   2.070  17.171  0.00  0.00    +0.000 A 
ATOM     49  C   UNL     1      17.936   2.471  18.171  0.00  0.00    +0.000 A 
BRANCH  44  50
ATOM     50  O   UNL     1      18.367   6.084  18.225  0.00  0.00    +0.000 OA
ATOM     51  H   UNL     1      21.556  10.179  16.374  0.00  0.00    +0.000 HD
ENDBRANCH  44  50
BRANCH  49  52
ATOM     52  O   UNL     1      17.154   1.510  18.765  0.00  0.00    +0.000 OA
ATOM     53  H   UNL     1      21.556  10.179  16.374  0.00  0.00    +0.000 HD
ENDBRANCH  49  52
ENDBRANCH  41  45
ENDBRANCH  30  40
ENDBRANCH   3  30
TORSDOF 15
ENDMDL
MODEL 16
REMARK minimizedAffinity -7.35702419
REMARK minimizedRMSD -1
REMARK  Name = 163789
REMARK  15 active torsions:
REMARK  status: ('A' for Active; 'I' for Inactive)
REMARK    1  A    between atoms: S_2  and  C_26
REMARK    2  A    between atoms: S_2  and  C_31
REMARK    3  A    between atoms: O_5  and  C_28
REMARK    4  A    between atoms: O_9  and  N_18
REMARK    5  A    between atoms: O_10  and  C_42
REMARK    6  A    between atoms: O_11  and  C_45
REMARK    7  A    between atoms: N_14  and  CA_21
REMARK    8  A    between atoms: N_15  and  CA_29
REMARK    9  A    between atoms: N_17  and  C_40
REMARK   10  A    between atoms: CA_23  and  C_28
REMARK   11  A    between atoms: C_24  and  C_26
REMARK   12  A    between atoms: C_27  and  CA_29
REMARK   13  A    between atoms: CA_29  and  C_30
REMARK   14  A    between atoms: C_33  and  C_37
REMARK   15  A    between atoms: C_40  and  C_42
REMARK                            x       y       z     vdW  Elec       q    Type
REMARK                         _______ _______ _______ _____ _____    ______ ____
ROOT
ATOM      1  O   UNL     1      11.242   1.908  26.119  0.00  0.00    +0.000 OA
ATOM      2  N   UNL     1      12.260   3.249  24.523  0.00  0.00    +0.000 N 
ATOM      3  C   UNL     1      11.429   2.208  24.941  0.00  0.00    +0.000 C 
ATOM      4  H   UNL     1      12.900   3.028  25.216  0.00  0.00    +0.000 HD
ENDROOT
BRANCH   2   9
ATOM      5  S   UNL     1      12.978   5.772  23.148  0.00  0.00    +0.000 S 
ATOM      6  O   UNL     1      15.167   2.846  26.024  0.00  0.00    +0.000 OA
ATOM      7  N   UNL     1      14.806   4.853  24.839  0.00  0.00    +0.000 N 
ATOM      8  C   UNL     1      13.477   5.437  24.852  0.00  0.00    +0.000 C 
ATOM      9  CA  UNL     1      13.000   4.097  25.455  0.00  0.00    +0.000 C 
ATOM     10  C   UNL     1      14.512   3.750  25.562  0.00  0.00    +0.000 C 
ATOM     11  CA  UNL     1      15.874   5.418  24.220  0.00  0.00    +0.000 C 
ATOM     12  C   UNL     1      15.721   6.421  23.322  0.00  0.00    +0.000 C 
ATOM     13  C   UNL     1      14.359   6.930  22.855  0.00  0.00    +0.000 C 
BRANCH  11  15
ATOM     14  OXT UNL     1      17.831   4.153  23.753  0.00  0.00    +0.000 OA
ATOM     15  C   UNL     1      17.197   4.851  24.518  0.00  0.00    +0.000 C 
BRANCH  15  16
ATOM     16  O   UNL     1      17.576   5.226  25.756  0.00  0.00    +0.000 OA
ATOM     17  H   UNL     1      13.137   3.436  25.474  0.00  0.00    +0.000 HD
ENDBRANCH  15  16
ENDBRANCH  11  15
BRANCH  12  18
ATOM     18  C   UNL     1      16.859   7.155  22.654  0.00  0.00    +0.000 C 
BRANCH  18  19
ATOM     19  S   UNL     1      16.277   8.757  22.074  0.00  0.00    +0.000 S 
BRANCH  19  21
ATOM     20  N   UNL     1      18.770   9.364  18.350  0.00  0.00    +0.000 N 
ATOM     21  C   UNL     1      17.265   8.998  20.597  0.00  0.00    +0.000 A 
ATOM     22  C   UNL     1      17.312  10.247  19.986  0.00  0.00    +0.000 A 
ATOM     23  C   UNL     1      17.987   7.935  20.062  0.00  0.00    +0.000 A 
ATOM     24  C   UNL     1      18.085  10.404  18.844  0.00  0.00    +0.000 A 
ATOM     25  C   UNL     1      18.744   8.150  18.918  0.00  0.00    +0.000 A 
BRANCH  20  26
ATOM     26  C   UNL     1      19.576   9.560  17.147  0.00  0.00    +0.000 C 
BRANCH  26  27
ATOM     27  C   UNL     1      20.518   8.383  16.963  0.00  0.00    +0.000 C 
BRANCH  27  28
ATOM     28  O   UNL     1      20.713   8.140  15.577  0.00  0.00    +0.000 OA
ATOM     29  H   UNL     1      26.325   9.310  12.708  0.00  0.00    +0.000 HD
ENDBRANCH  27  28
ENDBRANCH  26  27
ENDBRANCH  20  26
ENDBRANCH  19  21
ENDBRANCH  18  19
ENDBRANCH  12  18
ENDBRANCH   2   9
BRANCH   3  30
ATOM     30  CA  UNL     1      10.808   1.446  23.778  0.00  0.00    +0.000 C 
BRANCH  30  34
ATOM     31  S   UNL     1       7.207   2.519  22.390  0.00  0.00    +0.000 S 
ATOM     32  N   UNL     1       9.359   3.432  23.494  0.00  0.00    +0.000 NA
ATOM     33  N   UNL     1       7.693   5.050  23.051  0.00  0.00    +0.000 N 
ATOM     34  C   UNL     1       9.522   2.071  23.325  0.00  0.00    +0.000 A 
ATOM     35  C   UNL     1       8.463   1.406  22.743  0.00  0.00    +0.000 A 
ATOM     36  C   UNL     1       8.177   3.780  23.037  0.00  0.00    +0.000 A 
ATOM     37  H   UNL     1      10.252   1.324  26.714  0.00  0.00    +0.000 HD
ATOM     38  H   UNL     1      10.252   1.324  26.714  0.00  0.00    +0.000 HD
ENDBRANCH  30  34
BRANCH  30  40
ATOM     39  O   UNL     1      13.010  -0.411  23.394  0.00  0.00    +0.000 OA
ATOM     40  N   UNL     1      11.746   1.416  22.686  0.00  0.00    +0.000 N 
ATOM     41  C   UNL     1      12.766   0.485  22.595  0.00  0.00    +0.000 C 
ATOM     42  H   UNL     1      10.898   2.724  26.480  0.00  0.00    +0.000 HD
BRANCH  41  45
ATOM     43  O   UNL     1      14.128  -0.908  18.246  0.00  0.00    +0.000 OA
ATOM     44  N   UNL     1      14.485   1.711  21.290  0.00  0.00    +0.000 N 
ATOM     45  C   UNL     1      13.591   0.659  21.386  0.00  0.00    +0.000 A 
ATOM     46  C   UNL     1      13.421  -0.250  20.411  0.00  0.00    +0.000 A 
ATOM     47  C   UNL     1      15.252   1.866  20.155  0.00  0.00    +0.000 A 
ATOM     48  C   UNL     1      14.240  -0.109  19.169  0.00  0.00    +0.000 A 
ATOM     49  C   UNL     1      15.194   1.039  19.100  0.00  0.00    +0.000 A 
BRANCH  44  50
ATOM     50  O   UNL     1      14.629   2.623  22.327  0.00  0.00    +0.000 OA
ATOM     51  H   UNL     1      11.417   2.503  26.803  0.00  0.00    +0.000 HD
ENDBRANCH  44  50
BRANCH  49  52
ATOM     52  O   UNL     1      15.971   1.213  17.980  0.00  0.00    +0.000 OA
ATOM     53  H   UNL     1      11.417   2.503  26.803  0.00  0.00    +0.000 HD
ENDBRANCH  49  52
ENDBRANCH  41  45
ENDBRANCH  30  40
ENDBRANCH   3  30
TORSDOF 15
ENDMDL
MODEL 17
REMARK minimizedAffinity -7.35544395
REMARK minimizedRMSD -1
REMARK  Name = 163789
REMARK  15 active torsions:
REMARK  status: ('A' for Active; 'I' for Inactive)
REMARK    1  A    between atoms: S_2  and  C_26
REMARK    2  A    between atoms: S_2  and  C_31
REMARK    3  A    between atoms: O_5  and  C_28
REMARK    4  A    between atoms: O_9  and  N_18
REMARK    5  A    between atoms: O_10  and  C_42
REMARK    6  A    between atoms: O_11  and  C_45
REMARK    7  A    between atoms: N_14  and  CA_21
REMARK    8  A    between atoms: N_15  and  CA_29
REMARK    9  A    between atoms: N_17  and  C_40
REMARK   10  A    between atoms: CA_23  and  C_28
REMARK   11  A    between atoms: C_24  and  C_26
REMARK   12  A    between atoms: C_27  and  CA_29
REMARK   13  A    between atoms: CA_29  and  C_30
REMARK   14  A    between atoms: C_33  and  C_37
REMARK   15  A    between atoms: C_40  and  C_42
REMARK                            x       y       z     vdW  Elec       q    Type
REMARK                         _______ _______ _______ _____ _____    ______ ____
ROOT
ATOM      1  O   UNL     1      24.625   9.703  17.493  0.00  0.00    +0.000 OA
ATOM      2  N   UNL     1      24.242   9.284  19.743  0.00  0.00    +0.000 N 
ATOM      3  C   UNL     1      24.021   9.097  18.377  0.00  0.00    +0.000 C 
ATOM      4  H   UNL     1      24.347  10.237  19.605  0.00  0.00    +0.000 HD
ENDROOT
BRANCH   2   9
ATOM      5  S   UNL     1      26.645   7.780  20.602  0.00  0.00    +0.000 S 
ATOM      6  O   UNL     1      24.172  11.314  22.339  0.00  0.00    +0.000 OA
ATOM      7  N   UNL     1      26.018   9.863  22.123  0.00  0.00    +0.000 N 
ATOM      8  C   UNL     1      26.521   9.572  20.793  0.00  0.00    +0.000 C 
ATOM      9  CA  UNL     1      25.226  10.230  20.266  0.00  0.00    +0.000 C 
ATOM     10  C   UNL     1      24.982  10.643  21.744  0.00  0.00    +0.000 C 
ATOM     11  CA  UNL     1      26.577   9.383  23.264  0.00  0.00    +0.000 C 
ATOM     12  C   UNL     1      27.469   8.364  23.239  0.00  0.00    +0.000 C 
ATOM     13  C   UNL     1      27.845   7.607  21.967  0.00  0.00    +0.000 C 
BRANCH  11  15
ATOM     14  OXT UNL     1      25.152   9.596  25.153  0.00  0.00    +0.000 OA
ATOM     15  C   UNL     1      26.123   9.975  24.530  0.00  0.00    +0.000 C 
BRANCH  15  16
ATOM     16  O   UNL     1      26.947  10.984  24.873  0.00  0.00    +0.000 OA
ATOM     17  H   UNL     1      25.378  11.125  20.345  0.00  0.00    +0.000 HD
ENDBRANCH  15  16
ENDBRANCH  11  15
BRANCH  12  18
ATOM     18  C   UNL     1      28.195   7.829  24.451  0.00  0.00    +0.000 C 
BRANCH  18  19
ATOM     19  S   UNL     1      27.621   6.159  24.800  0.00  0.00    +0.000 S 
BRANCH  19  21
ATOM     20  N   UNL     1      24.650   6.871  28.134  0.00  0.00    +0.000 N 
ATOM     21  C   UNL     1      26.443   6.441  26.122  0.00  0.00    +0.000 A 
ATOM     22  C   UNL     1      25.232   5.757  26.133  0.00  0.00    +0.000 A 
ATOM     23  C   UNL     1      26.740   7.344  27.137  0.00  0.00    +0.000 A 
ATOM     24  C   UNL     1      24.339   5.995  27.169  0.00  0.00    +0.000 A 
ATOM     25  C   UNL     1      25.809   7.543  28.148  0.00  0.00    +0.000 A 
BRANCH  20  26
ATOM     26  C   UNL     1      23.690   7.100  29.212  0.00  0.00    +0.000 C 
BRANCH  26  27
ATOM     27  C   UNL     1      22.289   6.767  28.731  0.00  0.00    +0.000 C 
BRANCH  27  28
ATOM     28  O   UNL     1      21.540   7.964  28.577  0.00  0.00    +0.000 OA
ATOM     29  H   UNL     1      19.835  10.152  22.797  0.00  0.00    +0.000 HD
ENDBRANCH  27  28
ENDBRANCH  26  27
ENDBRANCH  20  26
ENDBRANCH  19  21
ENDBRANCH  18  19
ENDBRANCH  12  18
ENDBRANCH   2   9
BRANCH   3  30
ATOM     30  CA  UNL     1      22.914   8.091  18.091  0.00  0.00    +0.000 C 
BRANCH  30  34
ATOM     31  S   UNL     1      23.958   4.305  18.875  0.00  0.00    +0.000 S 
ATOM     32  N   UNL     1      23.112   6.489  19.968  0.00  0.00    +0.000 NA
ATOM     33  N   UNL     1      23.435   4.680  21.456  0.00  0.00    +0.000 N 
ATOM     34  C   UNL     1      23.253   6.727  18.615  0.00  0.00    +0.000 A 
ATOM     35  C   UNL     1      23.700   5.663  17.860  0.00  0.00    +0.000 A 
ATOM     36  C   UNL     1      23.455   5.246  20.220  0.00  0.00    +0.000 A 
ATOM     37  H   UNL     1      25.403   9.531  18.914  0.00  0.00    +0.000 HD
ATOM     38  H   UNL     1      25.403   9.531  18.914  0.00  0.00    +0.000 HD
ENDBRANCH  30  34
BRANCH  30  40
ATOM     39  O   UNL     1      20.195   7.565  17.210  0.00  0.00    +0.000 OA
ATOM     40  N   UNL     1      21.693   8.557  18.698  0.00  0.00    +0.000 N 
ATOM     41  C   UNL     1      20.441   8.249  18.198  0.00  0.00    +0.000 C 
ATOM     42  H   UNL     1      24.605   9.173  15.874  0.00  0.00    +0.000 HD
BRANCH  41  45
ATOM     43  O   UNL     1      17.159  11.632  18.901  0.00  0.00    +0.000 OA
ATOM     44  N   UNL     1      18.928   8.237  20.166  0.00  0.00    +0.000 N 
ATOM     45  C   UNL     1      19.348   8.839  18.993  0.00  0.00    +0.000 A 
ATOM     46  C   UNL     1      18.804   9.970  18.513  0.00  0.00    +0.000 A 
ATOM     47  C   UNL     1      17.905   8.796  20.902  0.00  0.00    +0.000 A 
ATOM     48  C   UNL     1      17.693  10.599  19.290  0.00  0.00    +0.000 A 
ATOM     49  C   UNL     1      17.266   9.922  20.552  0.00  0.00    +0.000 A 
BRANCH  44  50
ATOM     50  O   UNL     1      19.525   7.071  20.624  0.00  0.00    +0.000 OA
ATOM     51  H   UNL     1      23.346   4.388  17.696  0.00  0.00    +0.000 HD
ENDBRANCH  44  50
BRANCH  49  52
ATOM     52  O   UNL     1      16.250  10.461  21.303  0.00  0.00    +0.000 OA
ATOM     53  H   UNL     1      23.346   4.388  17.696  0.00  0.00    +0.000 HD
ENDBRANCH  49  52
ENDBRANCH  41  45
ENDBRANCH  30  40
ENDBRANCH   3  30
TORSDOF 15
ENDMDL
MODEL 18
REMARK minimizedAffinity -7.32870388
REMARK minimizedRMSD -1
REMARK  Name = 163789
REMARK  15 active torsions:
REMARK  status: ('A' for Active; 'I' for Inactive)
REMARK    1  A    between atoms: S_2  and  C_26
REMARK    2  A    between atoms: S_2  and  C_31
REMARK    3  A    between atoms: O_5  and  C_28
REMARK    4  A    between atoms: O_9  and  N_18
REMARK    5  A    between atoms: O_10  and  C_42
REMARK    6  A    between atoms: O_11  and  C_45
REMARK    7  A    between atoms: N_14  and  CA_21
REMARK    8  A    between atoms: N_15  and  CA_29
REMARK    9  A    between atoms: N_17  and  C_40
REMARK   10  A    between atoms: CA_23  and  C_28
REMARK   11  A    between atoms: C_24  and  C_26
REMARK   12  A    between atoms: C_27  and  CA_29
REMARK   13  A    between atoms: CA_29  and  C_30
REMARK   14  A    between atoms: C_33  and  C_37
REMARK   15  A    between atoms: C_40  and  C_42
REMARK                            x       y       z     vdW  Elec       q    Type
REMARK                         _______ _______ _______ _____ _____    ______ ____
ROOT
ATOM      1  O   UNL     1      12.670   3.619  25.210  0.00  0.00    +0.000 OA
ATOM      2  N   UNL     1      13.583   4.167  23.149  0.00  0.00    +0.000 N 
ATOM      3  C   UNL     1      12.596   3.639  23.983  0.00  0.00    +0.000 C 
ATOM      4  H   UNL     1      14.274   3.804  23.722  0.00  0.00    +0.000 HD
ENDROOT
BRANCH   2   9
ATOM      5  S   UNL     1      13.601   7.055  22.490  0.00  0.00    +0.000 S 
ATOM      6  O   UNL     1      16.746   3.630  22.390  0.00  0.00    +0.000 OA
ATOM      7  N   UNL     1      15.966   5.855  22.357  0.00  0.00    +0.000 N 
ATOM      8  C   UNL     1      14.981   6.260  23.344  0.00  0.00    +0.000 C 
ATOM      9  CA  UNL     1      14.819   4.757  23.657  0.00  0.00    +0.000 C 
ATOM     10  C   UNL     1      16.047   4.558  22.724  0.00  0.00    +0.000 C 
ATOM     11  CA  UNL     1      16.503   6.697  21.437  0.00  0.00    +0.000 C 
ATOM     12  C   UNL     1      15.952   7.906  21.178  0.00  0.00    +0.000 C 
ATOM     13  C   UNL     1      14.646   8.387  21.807  0.00  0.00    +0.000 C 
BRANCH  11  15
ATOM     14  OXT UNL     1      18.811   6.238  21.104  0.00  0.00    +0.000 OA
ATOM     15  C   UNL     1      17.671   6.209  20.688  0.00  0.00    +0.000 C 
BRANCH  15  16
ATOM     16  O   UNL     1      17.270   5.737  19.492  0.00  0.00    +0.000 OA
ATOM     17  H   UNL     1      15.568  10.078  20.608  0.00  0.00    +0.000 HD
ENDBRANCH  15  16
ENDBRANCH  11  15
BRANCH  12  18
ATOM     18  C   UNL     1      16.534   8.930  20.232  0.00  0.00    +0.000 C 
BRANCH  18  19
ATOM     19  S   UNL     1      17.882   9.799  21.050  0.00  0.00    +0.000 S 
BRANCH  19  21
ATOM     20  N   UNL     1      21.358   8.942  18.286  0.00  0.00    +0.000 N 
ATOM     21  C   UNL     1      19.260   9.460  19.954  0.00  0.00    +0.000 A 
ATOM     22  C   UNL     1      19.055   9.384  18.580  0.00  0.00    +0.000 A 
ATOM     23  C   UNL     1      20.535   9.271  20.477  0.00  0.00    +0.000 A 
ATOM     24  C   UNL     1      20.140   9.120  17.755  0.00  0.00    +0.000 A 
ATOM     25  C   UNL     1      21.583   9.009  19.605  0.00  0.00    +0.000 A 
BRANCH  20  26
ATOM     26  C   UNL     1      22.480   8.666  17.393  0.00  0.00    +0.000 C 
BRANCH  26  27
ATOM     27  C   UNL     1      23.788   8.977  18.100  0.00  0.00    +0.000 C 
BRANCH  27  28
ATOM     28  O   UNL     1      24.771   9.349  17.145  0.00  0.00    +0.000 OA
ATOM     29  H   UNL     1      26.961  15.359  16.732  0.00  0.00    +0.000 HD
ENDBRANCH  27  28
ENDBRANCH  26  27
ENDBRANCH  20  26
ENDBRANCH  19  21
ENDBRANCH  18  19
ENDBRANCH  12  18
ENDBRANCH   2   9
BRANCH   3  30
ATOM     30  CA  UNL     1      11.427   3.043  23.208  0.00  0.00    +0.000 C 
BRANCH  30  34
ATOM     31  S   UNL     1      12.079  -0.691  21.911  0.00  0.00    +0.000 S 
ATOM     32  N   UNL     1      11.431   0.696  23.995  0.00  0.00    +0.000 NA
ATOM     33  N   UNL     1      11.546  -1.641  24.338  0.00  0.00    +0.000 N 
ATOM     34  C   UNL     1      11.620   1.578  22.949  0.00  0.00    +0.000 A 
ATOM     35  C   UNL     1      11.975   1.013  21.742  0.00  0.00    +0.000 A 
ATOM     36  C   UNL     1      11.645  -0.527  23.564  0.00  0.00    +0.000 A 
ATOM     37  H   UNL     1      14.030   3.616  24.566  0.00  0.00    +0.000 HD
ATOM     38  H   UNL     1      14.030   3.616  24.566  0.00  0.00    +0.000 HD
ENDBRANCH  30  34
BRANCH  30  40
ATOM     39  O   UNL     1       8.707   2.486  22.353  0.00  0.00    +0.000 OA
ATOM     40  N   UNL     1      10.216   3.250  23.958  0.00  0.00    +0.000 N 
ATOM     41  C   UNL     1       8.961   2.951  23.458  0.00  0.00    +0.000 C 
ATOM     42  H   UNL     1      12.885   4.739  21.222  0.00  0.00    +0.000 HD
BRANCH  41  45
ATOM     43  O   UNL     1       6.576   2.006  27.474  0.00  0.00    +0.000 OA
ATOM     44  N   UNL     1       7.019   4.309  24.195  0.00  0.00    +0.000 N 
ATOM     45  C   UNL     1       7.880   3.248  24.415  0.00  0.00    +0.000 A 
ATOM     46  C   UNL     1       7.790   2.440  25.485  0.00  0.00    +0.000 A 
ATOM     47  C   UNL     1       6.011   4.580  25.096  0.00  0.00    +0.000 A 
ATOM     48  C   UNL     1       6.706   2.710  26.479  0.00  0.00    +0.000 A 
ATOM     49  C   UNL     1       5.796   3.863  26.209  0.00  0.00    +0.000 A 
BRANCH  44  50
ATOM     50  O   UNL     1       7.149   5.114  23.071  0.00  0.00    +0.000 OA
ATOM     51  H   UNL     1      11.319   4.531  19.517  0.00  0.00    +0.000 HD
ENDBRANCH  44  50
BRANCH  49  52
ATOM     52  O   UNL     1       4.783   4.152  27.091  0.00  0.00    +0.000 OA
ATOM     53  H   UNL     1      11.319   4.531  19.517  0.00  0.00    +0.000 HD
ENDBRANCH  49  52
ENDBRANCH  41  45
ENDBRANCH  30  40
ENDBRANCH   3  30
TORSDOF 15
ENDMDL
MODEL 19
REMARK minimizedAffinity -7.2989583
REMARK minimizedRMSD -1
REMARK  Name = 163789
REMARK  15 active torsions:
REMARK  status: ('A' for Active; 'I' for Inactive)
REMARK    1  A    between atoms: S_2  and  C_26
REMARK    2  A    between atoms: S_2  and  C_31
REMARK    3  A    between atoms: O_5  and  C_28
REMARK    4  A    between atoms: O_9  and  N_18
REMARK    5  A    between atoms: O_10  and  C_42
REMARK    6  A    between atoms: O_11  and  C_45
REMARK    7  A    between atoms: N_14  and  CA_21
REMARK    8  A    between atoms: N_15  and  CA_29
REMARK    9  A    between atoms: N_17  and  C_40
REMARK   10  A    between atoms: CA_23  and  C_28
REMARK   11  A    between atoms: C_24  and  C_26
REMARK   12  A    between atoms: C_27  and  CA_29
REMARK   13  A    between atoms: CA_29  and  C_30
REMARK   14  A    between atoms: C_33  and  C_37
REMARK   15  A    between atoms: C_40  and  C_42
REMARK                            x       y       z     vdW  Elec       q    Type
REMARK                         _______ _______ _______ _____ _____    ______ ____
ROOT
ATOM      1  O   UNL     1      18.850   4.030  17.682  0.00  0.00    +0.000 OA
ATOM      2  N   UNL     1      17.420   4.205  19.501  0.00  0.00    +0.000 N 
ATOM      3  C   UNL     1      18.509   4.596  18.719  0.00  0.00    +0.000 C 
ATOM      4  H   UNL     1      17.630   3.273  19.344  0.00  0.00    +0.000 HD
ENDROOT
BRANCH   2   9
ATOM      5  S   UNL     1      14.675   4.758  20.466  0.00  0.00    +0.000 S 
ATOM      6  O   UNL     1      17.480   1.049  20.451  0.00  0.00    +0.000 OA
ATOM      7  N   UNL     1      15.447   2.226  20.660  0.00  0.00    +0.000 N 
ATOM      8  C   UNL     1      15.105   3.207  19.646  0.00  0.00    +0.000 C 
ATOM      9  CA  UNL     1      16.565   3.070  19.161  0.00  0.00    +0.000 C 
ATOM     10  C   UNL     1      16.657   1.886  20.164  0.00  0.00    +0.000 C 
ATOM     11  CA  UNL     1      14.641   1.909  21.707  0.00  0.00    +0.000 C 
ATOM     12  C   UNL     1      13.587   2.687  22.048  0.00  0.00    +0.000 C 
ATOM     13  C   UNL     1      13.271   4.019  21.371  0.00  0.00    +0.000 C 
BRANCH  11  15
ATOM     14  OXT UNL     1      15.678   0.742  23.499  0.00  0.00    +0.000 OA
ATOM     15  C   UNL     1      15.003   0.719  22.490  0.00  0.00    +0.000 C 
BRANCH  15  16
ATOM     16  O   UNL     1      14.471  -0.376  21.912  0.00  0.00    +0.000 OA
ATOM     17  H   UNL     1      16.841   2.521  18.918  0.00  0.00    +0.000 HD
ENDBRANCH  15  16
ENDBRANCH  11  15
BRANCH  12  18
ATOM     18  C   UNL     1      12.599   2.361  23.143  0.00  0.00    +0.000 C 
BRANCH  18  19
ATOM     19  S   UNL     1      11.853   3.885  23.746  0.00  0.00    +0.000 S 
BRANCH  19  21
ATOM     20  N   UNL     1       7.439   2.968  23.389  0.00  0.00    +0.000 N 
ATOM     21  C   UNL     1      10.103   3.521  23.605  0.00  0.00    +0.000 A 
ATOM     22  C   UNL     1       9.618   2.274  23.987  0.00  0.00    +0.000 A 
ATOM     23  C   UNL     1       9.229   4.485  23.113  0.00  0.00    +0.000 A 
ATOM     24  C   UNL     1       8.258   2.021  23.867  0.00  0.00    +0.000 A 
ATOM     25  C   UNL     1       7.880   4.176  23.014  0.00  0.00    +0.000 A 
BRANCH  20  26
ATOM     26  C   UNL     1       6.013   2.671  23.275  0.00  0.00    +0.000 C 
BRANCH  26  27
ATOM     27  C   UNL     1       5.817   1.390  22.483  0.00  0.00    +0.000 C 
BRANCH  27  28
ATOM     28  O   UNL     1       5.686   1.698  21.103  0.00  0.00    +0.000 OA
ATOM     29  H   UNL     1      10.239   0.156  16.862  0.00  0.00    +0.000 HD
ENDBRANCH  27  28
ENDBRANCH  26  27
ENDBRANCH  20  26
ENDBRANCH  19  21
ENDBRANCH  18  19
ENDBRANCH  12  18
ENDBRANCH   2   9
BRANCH   3  30
ATOM     30  CA  UNL     1      19.266   5.777  19.312  0.00  0.00    +0.000 C 
BRANCH  30  34
ATOM     31  S   UNL     1      21.459   7.536  16.459  0.00  0.00    +0.000 S 
ATOM     32  N   UNL     1      19.318   7.798  17.883  0.00  0.00    +0.000 NA
ATOM     33  N   UNL     1      19.734   9.558  16.360  0.00  0.00    +0.000 N 
ATOM     34  C   UNL     1      19.920   6.610  18.249  0.00  0.00    +0.000 A 
ATOM     35  C   UNL     1      21.089   6.299  17.587  0.00  0.00    +0.000 A 
ATOM     36  C   UNL     1      20.041   8.371  16.947  0.00  0.00    +0.000 A 
ATOM     37  H   UNL     1      17.109   4.530  17.658  0.00  0.00    +0.000 HD
ATOM     38  H   UNL     1      17.109   4.530  17.658  0.00  0.00    +0.000 HD
ENDBRANCH  30  34
BRANCH  30  40
ATOM     39  O   UNL     1      19.664   6.876  21.972  0.00  0.00    +0.000 OA
ATOM     40  N   UNL     1      18.347   6.588  20.069  0.00  0.00    +0.000 N 
ATOM     41  C   UNL     1      18.634   7.064  21.336  0.00  0.00    +0.000 C 
ATOM     42  H   UNL     1      19.775   2.831  19.245  0.00  0.00    +0.000 HD
BRANCH  41  45
ATOM     43  O   UNL     1      14.765   7.486  24.087  0.00  0.00    +0.000 OA
ATOM     44  N   UNL     1      17.412   9.211  21.583  0.00  0.00    +0.000 N 
ATOM     45  C   UNL     1      17.537   7.871  21.904  0.00  0.00    +0.000 A 
ATOM     46  C   UNL     1      16.692   7.232  22.730  0.00  0.00    +0.000 A 
ATOM     47  C   UNL     1      16.384   9.957  22.119  0.00  0.00    +0.000 A 
ATOM     48  C   UNL     1      15.567   8.015  23.326  0.00  0.00    +0.000 A 
ATOM     49  C   UNL     1      15.463   9.460  22.957  0.00  0.00    +0.000 A 
BRANCH  44  50
ATOM     50  O   UNL     1      18.309   9.826  20.719  0.00  0.00    +0.000 OA
ATOM     51  H   UNL     1      22.743   7.213  18.750  0.00  0.00    +0.000 HD
ENDBRANCH  44  50
BRANCH  49  52
ATOM     52  O   UNL     1      14.446  10.223  23.477  0.00  0.00    +0.000 OA
ATOM     53  H   UNL     1      22.743   7.213  18.750  0.00  0.00    +0.000 HD
ENDBRANCH  49  52
ENDBRANCH  41  45
ENDBRANCH  30  40
ENDBRANCH   3  30
TORSDOF 15
ENDMDL
MODEL 20
REMARK minimizedAffinity -7.182868
REMARK minimizedRMSD -1
REMARK  Name = 163789
REMARK  15 active torsions:
REMARK  status: ('A' for Active; 'I' for Inactive)
REMARK    1  A    between atoms: S_2  and  C_26
REMARK    2  A    between atoms: S_2  and  C_31
REMARK    3  A    between atoms: O_5  and  C_28
REMARK    4  A    between atoms: O_9  and  N_18
REMARK    5  A    between atoms: O_10  and  C_42
REMARK    6  A    between atoms: O_11  and  C_45
REMARK    7  A    between atoms: N_14  and  CA_21
REMARK    8  A    between atoms: N_15  and  CA_29
REMARK    9  A    between atoms: N_17  and  C_40
REMARK   10  A    between atoms: CA_23  and  C_28
REMARK   11  A    between atoms: C_24  and  C_26
REMARK   12  A    between atoms: C_27  and  CA_29
REMARK   13  A    between atoms: CA_29  and  C_30
REMARK   14  A    between atoms: C_33  and  C_37
REMARK   15  A    between atoms: C_40  and  C_42
REMARK                            x       y       z     vdW  Elec       q    Type
REMARK                         _______ _______ _______ _____ _____    ______ ____
ROOT
ATOM      1  O   UNL     1      19.594   6.245  20.936  0.00  0.00    +0.000 OA
ATOM      2  N   UNL     1      17.421   7.004  20.641  0.00  0.00    +0.000 N 
ATOM      3  C   UNL     1      18.609   6.405  20.217  0.00  0.00    +0.000 C 
ATOM      4  H   UNL     1      17.922   7.649  21.161  0.00  0.00    +0.000 HD
ENDROOT
BRANCH   2   9
ATOM      5  S   UNL     1      16.226   4.850  22.286  0.00  0.00    +0.000 S 
ATOM      6  O   UNL     1      15.533   9.426  21.838  0.00  0.00    +0.000 OA
ATOM      7  N   UNL     1      15.365   7.299  22.841  0.00  0.00    +0.000 N 
ATOM      8  C   UNL     1      16.565   6.491  22.961  0.00  0.00    +0.000 C 
ATOM      9  CA  UNL     1      17.226   7.504  22.000  0.00  0.00    +0.000 C 
ATOM     10  C   UNL     1      15.927   8.338  22.186  0.00  0.00    +0.000 C 
ATOM     11  CA  UNL     1      14.150   6.921  23.315  0.00  0.00    +0.000 C 
ATOM     12  C   UNL     1      13.900   5.641  23.678  0.00  0.00    +0.000 C 
ATOM     13  C   UNL     1      14.904   4.504  23.497  0.00  0.00    +0.000 C 
BRANCH  11  15
ATOM     14  OXT UNL     1      12.979   8.770  24.242  0.00  0.00    +0.000 OA
ATOM     15  C   UNL     1      13.100   7.949  23.355  0.00  0.00    +0.000 C 
BRANCH  15  16
ATOM     16  O   UNL     1      12.313   7.829  22.268  0.00  0.00    +0.000 OA
ATOM     17  H   UNL     1      13.101   3.737  24.639  0.00  0.00    +0.000 HD
ENDBRANCH  15  16
ENDBRANCH  11  15
BRANCH  12  18
ATOM     18  C   UNL     1      12.605   5.159  24.289  0.00  0.00    +0.000 C 
BRANCH  18  19
ATOM     19  S   UNL     1      12.291   3.466  23.763  0.00  0.00    +0.000 S 
BRANCH  19  21
ATOM     20  N   UNL     1       7.784   3.425  23.389  0.00  0.00    +0.000 N 
ATOM     21  C   UNL     1      10.504   3.449  23.615  0.00  0.00    +0.000 A 
ATOM     22  C   UNL     1       9.758   2.489  24.292  0.00  0.00    +0.000 A 
ATOM     23  C   UNL     1       9.863   4.397  22.824  0.00  0.00    +0.000 A 
ATOM     24  C   UNL     1       8.376   2.501  24.158  0.00  0.00    +0.000 A 
ATOM     25  C   UNL     1       8.478   4.360  22.727  0.00  0.00    +0.000 A 
BRANCH  20  26
ATOM     26  C   UNL     1       6.329   3.411  23.269  0.00  0.00    +0.000 C 
BRANCH  26  27
ATOM     27  C   UNL     1       5.928   2.771  21.952  0.00  0.00    +0.000 C 
BRANCH  27  28
ATOM     28  O   UNL     1       5.424   1.464  22.190  0.00  0.00    +0.000 OA
ATOM     29  H   UNL     1      -0.777   0.047  21.395  0.00  0.00    +0.000 HD
ENDBRANCH  27  28
ENDBRANCH  26  27
ENDBRANCH  20  26
ENDBRANCH  19  21
ENDBRANCH  18  19
ENDBRANCH  12  18
ENDBRANCH   2   9
BRANCH   3  30
ATOM     30  CA  UNL     1      18.578   6.011  18.746  0.00  0.00    +0.000 C 
BRANCH  30  34
ATOM     31  S   UNL     1      21.083   8.020  16.352  0.00  0.00    +0.000 S 
ATOM     32  N   UNL     1      18.980   8.276  17.834  0.00  0.00    +0.000 NA
ATOM     33  N   UNL     1      19.703  10.257  16.763  0.00  0.00    +0.000 N 
ATOM     34  C   UNL     1      19.378   6.955  17.899  0.00  0.00    +0.000 A 
ATOM     35  C   UNL     1      20.497   6.627  17.162  0.00  0.00    +0.000 A 
ATOM     36  C   UNL     1      19.805   8.931  17.048  0.00  0.00    +0.000 A 
ATOM     37  H   UNL     1      16.286   5.548  16.881  0.00  0.00    +0.000 HD
ATOM     38  H   UNL     1      16.286   5.548  16.881  0.00  0.00    +0.000 HD
ENDBRANCH  30  34
BRANCH  30  40
ATOM     39  O   UNL     1      17.060   3.541  18.547  0.00  0.00    +0.000 OA
ATOM     40  N   UNL     1      19.097   4.674  18.610  0.00  0.00    +0.000 N 
ATOM     41  C   UNL     1      18.286   3.558  18.523  0.00  0.00    +0.000 C 
ATOM     42  H   UNL     1      17.756   7.624  21.127  0.00  0.00    +0.000 HD
BRANCH  41  45
ATOM     43  O   UNL     1      20.528   0.315  15.845  0.00  0.00    +0.000 OA
ATOM     44  N   UNL     1      19.375   1.555  19.504  0.00  0.00    +0.000 N 
ATOM     45  C   UNL     1      19.052   2.305  18.387  0.00  0.00    +0.000 A 
ATOM     46  C   UNL     1      19.403   1.952  17.140  0.00  0.00    +0.000 A 
ATOM     47  C   UNL     1      20.093   0.385  19.368  0.00  0.00    +0.000 A 
ATOM     48  C   UNL     1      20.181   0.688  16.960  0.00  0.00    +0.000 A 
ATOM     49  C   UNL     1      20.512  -0.096  18.188  0.00  0.00    +0.000 A 
BRANCH  44  50
ATOM     50  O   UNL     1      18.986   1.959  20.774  0.00  0.00    +0.000 OA
ATOM     51  H   UNL     1      16.475   6.781  21.674  0.00  0.00    +0.000 HD
ENDBRANCH  44  50
BRANCH  49  52
ATOM     52  O   UNL     1      21.224  -1.266  18.077  0.00  0.00    +0.000 OA
ATOM     53  H   UNL     1      16.475   6.781  21.674  0.00  0.00    +0.000 HD
ENDBRANCH  49  52
ENDBRANCH  41  45
ENDBRANCH  30  40
ENDBRANCH   3  30
TORSDOF 15
ENDMDL
